************************************************************************
* Library Name: sky130_scl_9T
* Cell Name:    AOI221X1
* View Name:    schematic
************************************************************************

.SUBCKT AOI221X1 A0 A1 B0 B1 C0 Y VDD VSS
*.PININFO A0:I A1:I B0:I B1:I C0:I VDD:I VSS:I Y:O
Mmn2 net120 B0 VSS VSS nfet_01v8 W=760n L=150n M=1
Mmn3 Y B1 net120 VSS nfet_01v8 W=760n L=150n M=1
Mmn4 Y C0 VSS VSS nfet_01v8 W=760n L=150n M=1
Mmn1 Y A1 net128 VSS nfet_01v8 W=760n L=150n M=1
Mmn0 net128 A0 VSS VSS nfet_01v8 W=760n L=150n M=1
Mmp3 net108 B1 net111 VDD pfet_01v8 W=1.13u L=150n M=1
Mmp2 net108 B0 net111 VDD pfet_01v8 W=1.13u L=150n M=1
Mmp0 net111 A0 VDD VDD pfet_01v8 W=1.13u L=150n M=1
Mmp1 net111 A1 VDD VDD pfet_01v8 W=1.13u L=150n M=1
Mmp4 Y C0 net108 VDD pfet_01v8 W=1.13u L=150n M=1
.ENDS

************************************************************************
* Library Name: sky130_scl_9T
* Cell Name:    SDFFX1
* View Name:    schematic
************************************************************************

.SUBCKT SDFFX1 CK D Q QN SE SI VDD VSS
*.PININFO CK:I D:I SE:I SI:I VDD:I VSS:I Q:O QN:O
Mmn13 net461 SI VSS VSS nfet_01v8 W=425n L=150n M=1
Mmn14 Db SE net461 VSS nfet_01v8 W=425n L=150n M=1
Mmn12 Db SEb net449 VSS nfet_01v8 W=425n L=150n M=1
Mmn11 net449 D VSS VSS nfet_01v8 W=425n L=150n M=1
Mmn57 QN net367 VSS VSS nfet_01v8 W=760n L=150n M=1
Mmn55 Q qbint VSS VSS nfet_01v8 W=760n L=150n M=1
Mmn50 net436 qbint VSS VSS nfet_01v8 W=425n L=150n M=1
Mmn51 n30 CKb net436 VSS nfet_01v8 W=425n L=150n M=1
Mmn35 net429 mout VSS VSS nfet_01v8 W=425n L=150n M=1
Mmn36 n20 CKbb net429 VSS nfet_01v8 W=425n L=150n M=1
Mmn20 CKb CK VSS VSS nfet_01v8 W=425n L=150n M=1
Mmn45 qbint n30 VSS VSS nfet_01v8 W=425n L=150n M=1
Mmn56 net367 qbint VSS VSS nfet_01v8 W=425n L=150n M=1
Mmn21 CKbb CKb VSS VSS nfet_01v8 W=425n L=150n M=1
Mmn40 n30 CKbb mout VSS nfet_01v8 W=425n L=150n M=1
Mmn30 mout n20 VSS VSS nfet_01v8 W=425n L=150n M=1
Mmn10 SEb SE VSS VSS nfet_01v8 W=425n L=150n M=1
Mmn25 n20 CKb Db VSS nfet_01v8 W=425n L=150n M=1
Mmp14 Db SEb net392 VDD pfet_01v8 W=625n L=150n M=1
Mmp13 net392 SI VDD VDD pfet_01v8 W=625n L=150n M=1
Mmp12 Db SE net384 VDD pfet_01v8 W=625n L=150n M=1
Mmp11 net384 D VDD VDD pfet_01v8 W=625n L=150n M=1
Mmp51 n30 CKbb net376 VDD pfet_01v8 W=625n L=150n M=1
Mmp50 net376 qbint VDD VDD pfet_01v8 W=625n L=150n M=1
Mmp57 QN net367 VDD VDD pfet_01v8 W=1.13u L=150n M=1
Mmp55 Q qbint VDD VDD pfet_01v8 W=1.13u L=150n M=1
Mmp35 net356 mout VDD VDD pfet_01v8 W=625n L=150n M=1
Mmp36 n20 CKb net356 VDD pfet_01v8 W=625n L=150n M=1
Mmp20 CKb CK VDD VDD pfet_01v8 W=625n L=150n M=1
Mmp45 qbint n30 VDD VDD pfet_01v8 W=625n L=150n M=1
Mmp56 net367 qbint VDD VDD pfet_01v8 W=625n L=150n M=1
Mmp21 CKbb CKb VDD VDD pfet_01v8 W=625n L=150n M=1
Mmp40 n30 CKb mout VDD pfet_01v8 W=625n L=150n M=1
Mmp30 mout n20 VDD VDD pfet_01v8 W=625n L=150n M=1
Mmp25 n20 CKbb Db VDD pfet_01v8 W=625n L=150n M=1
Mmp10 SEb SE VDD VDD pfet_01v8 W=625n L=150n M=1
.ENDS

************************************************************************
* Library Name: sky130_scl_9T
* Cell Name:    OR3X2
* View Name:    schematic
************************************************************************

.SUBCKT OR3X2 A B C Y VDD VSS
*.PININFO A:I B:I C:I VDD:I VSS:I Y:O
Mmn3 Y n0 VSS VSS nfet_01v8 W=1.52u L=150n M=1
Mmn0 n0 A VSS VSS nfet_01v8 W=425n L=150n M=1
Mmn1 n0 B VSS VSS nfet_01v8 W=425n L=150n M=1
Mmn2 n0 C VSS VSS nfet_01v8 W=425n L=150n M=1
Mmp3 Y n0 VDD VDD pfet_01v8 W=2.26u L=150n M=1
Mmp1 n2 B n1 VDD pfet_01v8 W=625n L=150n M=1
Mmp2 n0 C n2 VDD pfet_01v8 W=625n L=150n M=1
Mmp0 n1 A VDD VDD pfet_01v8 W=625n L=150n M=1
.ENDS

************************************************************************
* Library Name: sky130_scl_9T
* Cell Name:    OAI211X1
* View Name:    schematic
************************************************************************

.SUBCKT OAI211X1 A0 A1 B0 C0 Y VDD VSS
*.PININFO A0:I A1:I B0:I C0:I VDD:I VSS:I Y:O
Mmn1 n0 A1 VSS VSS nfet_01v8 W=760n L=150n M=1
Mmn0 n0 A0 VSS VSS nfet_01v8 W=760n L=150n M=1
Mmn2 n1 B0 n0 VSS nfet_01v8 W=760n L=150n M=1
Mmn3 Y C0 n1 VSS nfet_01v8 W=760n L=150n M=1
Mmp1 Y A1 n2 VDD pfet_01v8 W=1.13u L=150n M=1
Mmp0 n2 A0 VDD VDD pfet_01v8 W=1.13u L=150n M=1
Mmp3 Y C0 VDD VDD pfet_01v8 W=1.13u L=150n M=1
Mmp2 Y B0 VDD VDD pfet_01v8 W=1.13u L=150n M=1
.ENDS

************************************************************************
* Library Name: sky130_scl_9T
* Cell Name:    AOI222X1
* View Name:    schematic
************************************************************************

.SUBCKT AOI222X1 A0 A1 B0 B1 C0 C1 Y VDD VSS
*.PININFO A0:I A1:I B0:I B1:I C0:I C1:I VDD:I VSS:I Y:O
Mmn5 Y C1 net155 VSS nfet_01v8 W=760n L=150n M=1
Mmn4 net155 C0 VSS VSS nfet_01v8 W=760n L=150n M=1
Mmn2 net147 B0 VSS VSS nfet_01v8 W=760n L=150n M=1
Mmn0 net139 A0 VSS VSS nfet_01v8 W=760n L=150n M=1
Mmn1 Y A1 net139 VSS nfet_01v8 W=760n L=150n M=1
Mmn3 Y B1 net147 VSS nfet_01v8 W=760n L=150n M=1
Mmp5 Y C1 net118 VDD pfet_01v8 W=1.13u L=150n M=1
Mmp4 Y C0 net118 VDD pfet_01v8 W=1.13u L=150n M=1
Mmp3 net118 B1 net122 VDD pfet_01v8 W=1.13u L=150n M=1
Mmp2 net118 B0 net122 VDD pfet_01v8 W=1.13u L=150n M=1
Mmp0 net122 A0 VDD VDD pfet_01v8 W=1.13u L=150n M=1
Mmp1 net122 A1 VDD VDD pfet_01v8 W=1.13u L=150n M=1
.ENDS

************************************************************************
* Library Name: sky130_scl_9T
* Cell Name:    AND4X2
* View Name:    schematic
************************************************************************

.SUBCKT AND4X2 A B C D Y VDD VSS
*.PININFO A:I B:I C:I D:I VDD:I VSS:I Y:O
Mmn3 net100 D net132 VSS nfet_01v8 W=425n L=150n M=1
Mmn2 net132 C net124 VSS nfet_01v8 W=425n L=150n M=1
Mmn4 Y net100 VSS VSS nfet_01v8 W=1.52u L=150n M=1
Mmn1 net124 B net120 VSS nfet_01v8 W=425n L=150n M=1
Mmn0 net120 A VSS VSS nfet_01v8 W=425n L=150n M=1
Mmp3 net100 D VDD VDD pfet_01v8 W=625n L=150n M=1
Mmp2 net100 C VDD VDD pfet_01v8 W=625n L=150n M=1
Mmp1 net100 B VDD VDD pfet_01v8 W=625n L=150n M=1
Mmp4 Y net100 VDD VDD pfet_01v8 W=2.26u L=150n M=1
Mmp0 net100 A VDD VDD pfet_01v8 W=625n L=150n M=1
.ENDS

************************************************************************
* Library Name: sky130_scl_9T
* Cell Name:    AND2X2
* View Name:    schematic
************************************************************************

.SUBCKT AND2X2 A B Y VDD VSS
*.PININFO A:I B:I VDD:I VSS:I Y:O
Mmn2 Y n0 VSS VSS nfet_01v8 W=1.52u L=150n M=1
Mmn0 net73 A VSS VSS nfet_01v8 W=425n L=150n M=1
Mmn1 n0 B net73 VSS nfet_01v8 W=425n L=150n M=1
Mmp1 n0 B VDD VDD pfet_01v8 W=625n L=150n M=1
Mmp0 n0 A VDD VDD pfet_01v8 W=625n L=150n M=1
Mmp2 Y n0 VDD VDD pfet_01v8 W=2.26u L=150n M=1
.ENDS

************************************************************************
* Library Name: sky130_scl_9T
* Cell Name:    NOR3X4
* View Name:    schematic
************************************************************************

.SUBCKT NOR3X4 A B C Y VDD VSS
*.PININFO A:I B:I C:I VDD:I VSS:I Y:O
Mmn0 Y A VSS VSS nfet_01v8 W=3.04u L=150n M=1
Mmn1 Y B VSS VSS nfet_01v8 W=3.04u L=150n M=1
Mmn2 Y C VSS VSS nfet_01v8 W=3.04u L=150n M=1
Mmp1 n1 B n0 VDD pfet_01v8 W=4.52u L=150n M=1
Mmp2 Y C n1 VDD pfet_01v8 W=4.52u L=150n M=1
Mmp0 n0 A VDD VDD pfet_01v8 W=4.52u L=150n M=1
.ENDS

************************************************************************
* Library Name: sky130_scl_9T
* Cell Name:    DFFRX1
* View Name:    schematic
************************************************************************

.SUBCKT DFFRX1 CK D Q QN RN VDD VSS
*.PININFO CK:I D:I RN:I VDD:I VSS:I Q:O QN:O
Mmn36 n25 mout n27 VSS nfet_01v8 W=425n L=150n M=1
Mmn35 n27 RN VSS VSS nfet_01v8 W=425n L=150n M=1
Mmn37 n20 CKbb n25 VSS nfet_01v8 W=425n L=150n M=1
Mmn26 n20 CKb n21 VSS nfet_01v8 W=425n L=150n M=1
Mmn25 n21 D VSS VSS nfet_01v8 W=425n L=150n M=1
Mmn57 QN qint VSS VSS nfet_01v8 W=760n L=150n M=1
Mmn55 Q qbint VSS VSS nfet_01v8 W=760n L=150n M=1
Mmn45 n35 RN VSS VSS nfet_01v8 W=425n L=150n M=1
Mmn46 qbint n30 n35 VSS nfet_01v8 W=425n L=150n M=1
Mmn51 n30 CKb n40 VSS nfet_01v8 W=425n L=150n M=1
Mmn50 n40 qbint VSS VSS nfet_01v8 W=425n L=150n M=1
Mmn21 CKbb CKb VSS VSS nfet_01v8 W=425n L=150n M=1
Mmn40 n30 CKbb mout VSS nfet_01v8 W=425n L=150n M=1
Mmn30 mout n20 VSS VSS nfet_01v8 W=425n L=150n M=1
Mmn56 qint qbint VSS VSS nfet_01v8 W=425n L=150n M=1
Mmn20 CKb CK VSS VSS nfet_01v8 W=425n L=150n M=1
Mmp26 n20 CKbb n22 VDD pfet_01v8 W=625n L=150n M=1
Mmp25 n22 D VDD VDD pfet_01v8 W=625n L=150n M=1
Mmp51 n30 CKbb n41 VDD pfet_01v8 W=625n L=150n M=1
Mmp50 n41 qbint VDD VDD pfet_01v8 W=625n L=150n M=1
Mmp57 QN qint VDD VDD pfet_01v8 W=1.13u L=150n M=1
Mmp55 Q qbint VDD VDD pfet_01v8 W=1.13u L=150n M=1
Mmp20 CKb CK VDD VDD pfet_01v8 W=625n L=150n M=1
Mmp21 CKbb CKb VDD VDD pfet_01v8 W=625n L=150n M=1
Mmp36 n26 mout VDD VDD pfet_01v8 W=625n L=150n M=1
Mmp30 mout n20 VDD VDD pfet_01v8 W=625n L=150n M=1
Mmp35 n26 RN VDD VDD pfet_01v8 W=625n L=150n M=1
Mmp37 n20 CKb n26 VDD pfet_01v8 W=625n L=150n M=1
Mmp46 qbint n30 VDD VDD pfet_01v8 W=625n L=150n M=1
Mmp40 n30 CKb mout VDD pfet_01v8 W=625n L=150n M=1
Mmp45 qbint RN VDD VDD pfet_01v8 W=625n L=150n M=1
Mmp56 qint qbint VDD VDD pfet_01v8 W=625n L=150n M=1
.ENDS

************************************************************************
* Library Name: sky130_scl_9T
* Cell Name:    SDFFRX1
* View Name:    schematic
************************************************************************

.SUBCKT SDFFRX1 CK D Q QN RN SE SI VDD VSS
*.PININFO CK:I D:I RN:I SE:I SI:I VDD:I VSS:I Q:O QN:O
Mmn36 n5 mout n7 VSS nfet_01v8 W=425n L=150n M=1
Mmn35 n7 RN VSS VSS nfet_01v8 W=425n L=150n M=1
Mmn37 n20 Ckbb n5 VSS nfet_01v8 W=425n L=150n M=1
Mmn13 n3 SI VSS VSS nfet_01v8 W=425n L=150n M=1
Mmn14 Db SE n3 VSS nfet_01v8 W=425n L=150n M=1
Mmn12 Db SEb n1 VSS nfet_01v8 W=425n L=150n M=1
Mmn11 n1 D VSS VSS nfet_01v8 W=425n L=150n M=1
Mmn57 QN qint VSS VSS nfet_01v8 W=760n L=150n M=1
Mmn55 Q qbint VSS VSS nfet_01v8 W=760n L=150n M=1
Mmn45 n9 RN VSS VSS nfet_01v8 W=425n L=150n M=1
Mmn46 qbint n30 n9 VSS nfet_01v8 W=425n L=150n M=1
Mmn51 n30 CKb n11 VSS nfet_01v8 W=425n L=150n M=1
Mmn50 n11 qbint VSS VSS nfet_01v8 W=425n L=150n M=1
Mmn20 CKb CK VSS VSS nfet_01v8 W=425n L=150n M=1
Mmn56 qint qbint VSS VSS nfet_01v8 W=425n L=150n M=1
Mmn40 mout Ckbb n30 VSS nfet_01v8 W=425n L=150n M=1
Mmn30 mout n20 VSS VSS nfet_01v8 W=425n L=150n M=1
Mmn21 Ckbb CKb VSS VSS nfet_01v8 W=425n L=150n M=1
Mmn10 SEb SE VSS VSS nfet_01v8 W=425n L=150n M=1
Mmn25 Db CKb n20 VSS nfet_01v8 W=425n L=150n M=1
Mmp14 Db SEb n4 VDD pfet_01v8 W=625n L=150n M=1
Mmp13 n4 SI VDD VDD pfet_01v8 W=625n L=150n M=1
Mmp12 Db SE n2 VDD pfet_01v8 W=625n L=150n M=1
Mmp11 n2 D VDD VDD pfet_01v8 W=625n L=150n M=1
Mmp51 n30 Ckbb n8 VDD pfet_01v8 W=625n L=150n M=1
Mmp50 n8 qbint VDD VDD pfet_01v8 W=625n L=150n M=1
Mmp55 Q qbint VDD VDD pfet_01v8 W=1.13u L=150n M=1
Mmp20 CKb CK VDD VDD pfet_01v8 W=625n L=150n M=1
Mmp46 qbint n30 VDD VDD pfet_01v8 W=625n L=150n M=1
Mmp56 qint qbint VDD VDD pfet_01v8 W=625n L=150n M=1
Mmp45 qbint RN VDD VDD pfet_01v8 W=625n L=150n M=1
Mmp35 n6 RN VDD VDD pfet_01v8 W=625n L=150n M=1
Mmp36 n6 mout VDD VDD pfet_01v8 W=625n L=150n M=1
Mmp37 n20 CKb n6 VDD pfet_01v8 W=625n L=150n M=1
Mmp40 n30 CKb mout VDD pfet_01v8 W=625n L=150n M=1
Mmp30 mout n20 VDD VDD pfet_01v8 W=625n L=150n M=1
Mmp21 Ckbb CKb VDD VDD pfet_01v8 W=625n L=150n M=1
Mmp25 n20 Ckbb Db VDD pfet_01v8 W=625n L=150n M=1
Mmp10 SEb SE VDD VDD pfet_01v8 W=625n L=150n M=1
Mmp57 QN qint VDD VDD pfet_01v8 W=1.13u L=150n M=1
.ENDS

************************************************************************
* Library Name: sky130_scl_9T
* Cell Name:    OAI22X2
* View Name:    schematic
************************************************************************

.SUBCKT OAI22X2 A0 A1 B0 B1 Y VDD VSS
*.PININFO A0:I A1:I B0:I B1:I VDD:I VSS:I Y:O
Mmn0 net102 A0 VSS VSS nfet_01v8 W=1.52u L=150n M=1
Mmn3 Y B1 net102 VSS nfet_01v8 W=1.52u L=150n M=1
Mmn1 net102 A1 VSS VSS nfet_01v8 W=1.52u L=150n M=1
Mmn2 Y B0 net102 VSS nfet_01v8 W=1.52u L=150n M=1
Mmp3 Y B1 net85 VDD pfet_01v8 W=2.26u L=150n M=1
Mmp1 Y A1 net93 VDD pfet_01v8 W=2.26u L=150n M=1
Mmp0 net93 A0 VDD VDD pfet_01v8 W=2.26u L=150n M=1
Mmp2 net85 B0 VDD VDD pfet_01v8 W=2.26u L=150n M=1
.ENDS

************************************************************************
* Library Name: sky130_scl_9T
* Cell Name:    DFFX4
* View Name:    schematic
************************************************************************

.SUBCKT DFFX4 CK D Q QN VDD VSS
*.PININFO CK:I D:I VDD:I VSS:I Q:O QN:O
Mmn26 n20 CKb n21 VSS nfet_01v8 W=425n L=150n M=1
Mmn25 n21 D VSS VSS nfet_01v8 W=425n L=150n M=1
Mmn57 QN qint VSS VSS nfet_01v8 W=3.04u L=150n M=1
Mmn55 Q qbint VSS VSS nfet_01v8 W=3.04u L=150n M=1
Mmn50 n35 qbint VSS VSS nfet_01v8 W=425n L=150n M=1
Mmn51 n30 CKb n35 VSS nfet_01v8 W=425n L=150n M=1
Mmn35 n25 mout VSS VSS nfet_01v8 W=425n L=150n M=1
Mmn36 n20 CKbb n25 VSS nfet_01v8 W=425n L=150n M=1
Mmn20 CKb CK VSS VSS nfet_01v8 W=425n L=150n M=1
Mmn45 qbint n30 VSS VSS nfet_01v8 W=1.2u L=150n M=1
Mmn56 qint qbint VSS VSS nfet_01v8 W=760n L=150n M=1
Mmn21 CKbb CKb VSS VSS nfet_01v8 W=425n L=150n M=1
Mmn30 mout n20 VSS VSS nfet_01v8 W=425n L=150n M=1
Mmn40 n30 CKbb mout VSS nfet_01v8 W=425n L=150n M=1
Mmp26 n20 CKbb n22 VDD pfet_01v8 W=625n L=150n M=1
Mmp25 n22 D VDD VDD pfet_01v8 W=625n L=150n M=1
Mmp51 n30 CKbb n36 VDD pfet_01v8 W=625n L=150n M=1
Mmp50 n36 qbint VDD VDD pfet_01v8 W=625n L=150n M=1
Mmp57 QN qint VDD VDD pfet_01v8 W=4.52u L=150n M=1
Mmp55 Q qbint VDD VDD pfet_01v8 W=4.52u L=150n M=1
Mmp35 n26 mout VDD VDD pfet_01v8 W=625n L=150n M=1
Mmp36 n20 CKb n26 VDD pfet_01v8 W=625n L=150n M=1
Mmp20 CKb CK VDD VDD pfet_01v8 W=625n L=150n M=1
Mmp45 qbint n30 VDD VDD pfet_01v8 W=1.81u L=150n M=1
Mmp56 qint qbint VDD VDD pfet_01v8 W=1.13u L=150n M=1
Mmp21 CKbb CKb VDD VDD pfet_01v8 W=625n L=150n M=1
Mmp40 n30 CKb mout VDD pfet_01v8 W=625n L=150n M=1
Mmp30 mout n20 VDD VDD pfet_01v8 W=625n L=150n M=1
.ENDS

************************************************************************
* Library Name: sky130_scl_9T
* Cell Name:    XNOR2X2
* View Name:    schematic
************************************************************************

.SUBCKT XNOR2X2 A B Y VDD VSS
*.PININFO A:I B:I VDD:I VSS:I Y:O
Mmn1 n2 B VSS VSS nfet_01v8 W=425n L=150n M=1
Mmn2 net145 n1 VSS VSS nfet_01v8 W=425n L=150n M=1
Mmn3 n0 n2 net145 VSS nfet_01v8 W=425n L=150n M=1
Mmn5 Y n0 VSS VSS nfet_01v8 W=1.52u L=150n M=1
Mmn0 n1 A VSS VSS nfet_01v8 W=425n L=150n M=1
Mmn4 n0 B n1 VSS nfet_01v8 W=425n L=150n M=1
Mmp0 n1 A VDD VDD pfet_01v8 W=625n L=150n M=1
Mmp4 n1 n2 n0 VDD pfet_01v8 W=625n L=150n M=1
Mmp2 net112 n1 VDD VDD pfet_01v8 W=625n L=150n M=1
Mmp1 n2 B VDD VDD pfet_01v8 W=625n L=150n M=1
Mmp3 n0 B net112 VDD pfet_01v8 W=625n L=150n M=1
Mmp5 Y n0 VDD VDD pfet_01v8 W=2.26u L=150n M=1
.ENDS

************************************************************************
* Library Name: sky130_scl_9T
* Cell Name:    INVX2
* View Name:    schematic
************************************************************************

.SUBCKT INVX2 A Y VDD VSS
*.PININFO A:I VDD:I VSS:I Y:O
Mmp0 Y A VDD VDD pfet_01v8 W=2.26u L=150n M=1
Mmn0 Y A VSS VSS nfet_01v8 W=1.52u L=150n M=1
.ENDS

************************************************************************
* Library Name: sky130_scl_9T
* Cell Name:    BUFX4
* View Name:    schematic
************************************************************************

.SUBCKT BUFX4 A Y VDD VSS
*.PININFO A:I VDD:I VSS:I Y:O
Mmn1 VSS n0 Y VSS nfet_01v8 W=3.04u L=150n M=1
Mmn0 VSS A n0 VSS nfet_01v8 W=760n L=150n M=1
Mmp1 Y n0 VDD VDD pfet_01v8 W=4.52u L=150n M=1
Mmp0 n0 A VDD VDD pfet_01v8 W=1.13u L=150n M=1
.ENDS

************************************************************************
* Library Name: sky130_scl_9T
* Cell Name:    XOR2X1
* View Name:    schematic
************************************************************************

.SUBCKT XOR2X1 A B Y VDD VSS
*.PININFO A:I B:I VDD:I VSS:I Y:O
Mmn1 n2 B VSS VSS nfet_01v8 W=425n L=150n M=1
Mmn0 n1 A VSS VSS nfet_01v8 W=425n L=150n M=1
Mmn5 Y n0 VSS VSS nfet_01v8 W=760n L=150n M=1
Mmn3 n0 B net131 VSS nfet_01v8 W=425n L=150n M=1
Mmn4 n0 n2 n1 VSS nfet_01v8 W=425n L=150n M=1
Mmn2 net131 n1 VSS VSS nfet_01v8 W=425n L=150n M=1
Mmp3 n0 n2 net130 VDD pfet_01v8 W=625n L=150n M=1
Mmp1 n2 B VDD VDD pfet_01v8 W=625n L=150n M=1
Mmp4 n1 B n0 VDD pfet_01v8 W=625n L=150n M=1
Mmp0 n1 A VDD VDD pfet_01v8 W=625n L=150n M=1
Mmp5 Y n0 VDD VDD pfet_01v8 W=1.13u L=150n M=1
Mmp2 net130 n1 VDD VDD pfet_01v8 W=625n L=150n M=1
.ENDS

************************************************************************
* Library Name: sky130_scl_9T
* Cell Name:    NOR4X1
* View Name:    schematic
************************************************************************

.SUBCKT NOR4X1 A B C D Y VDD VSS
*.PININFO A:I B:I C:I D:I VDD:I VSS:I Y:O
Mmn2 Y C VSS VSS nfet_01v8 W=760n L=150n M=1
Mmn3 Y D VSS VSS nfet_01v8 W=760n L=150n M=1
Mmn0 Y A VSS VSS nfet_01v8 W=760n L=150n M=1
Mmn1 Y B VSS VSS nfet_01v8 W=760n L=150n M=1
Mmp1 n1 B n0 VDD pfet_01v8 W=1.13u L=150n M=1
Mmp3 Y D n2 VDD pfet_01v8 W=1.13u L=150n M=1
Mmp2 n2 C n1 VDD pfet_01v8 W=1.13u L=150n M=1
Mmp0 n0 A VDD VDD pfet_01v8 W=1.13u L=150n M=1
.ENDS

************************************************************************
* Library Name: sky130_scl_9T
* Cell Name:    NOR2X1
* View Name:    schematic
************************************************************************

.SUBCKT NOR2X1 A B Y VDD VSS
*.PININFO A:I B:I VDD:I VSS:I Y:O
Mmn1 Y B VSS VSS nfet_01v8 W=760n L=150n M=1
Mmn0 Y A VSS VSS nfet_01v8 W=760n L=150n M=1
Mmp1 Y B net41 VDD pfet_01v8 W=1.13u L=150n M=1
Mmp0 net41 A VDD VDD pfet_01v8 W=1.13u L=150n M=1
.ENDS

************************************************************************
* Library Name: sky130_scl_9T
* Cell Name:    NAND3X2
* View Name:    schematic
************************************************************************

.SUBCKT NAND3X2 A B C Y VDD VSS
*.PININFO A:I B:I C:I VDD:I VSS:I Y:O
Mmn1 n0 B n1 VSS nfet_01v8 W=1.52u L=150n M=1
Mmn2 Y C n0 VSS nfet_01v8 W=1.52u L=150n M=1
Mmn0 n1 A VSS VSS nfet_01v8 W=1.52u L=150n M=1
Mmp0 Y A VDD VDD pfet_01v8 W=2.26u L=150n M=1
Mmp1 Y B VDD VDD pfet_01v8 W=2.26u L=150n M=1
Mmp2 Y C VDD VDD pfet_01v8 W=2.26u L=150n M=1
.ENDS

************************************************************************
* Library Name: sky130_scl_9T
* Cell Name:    DFFSX4
* View Name:    schematic
************************************************************************

.SUBCKT DFFSX4 CK D Q QN SN VDD VSS
*.PININFO CK:I D:I SN:I VDD:I VSS:I Q:O QN:O
Mmn51 n40 qbint n42 VSS nfet_01v8 W=425n L=150n M=1
Mmn52 n35 CKb n40 VSS nfet_01v8 W=425n L=150n M=1
Mmn50 n42 SN VSS VSS nfet_01v8 W=425n L=150n M=1
Mmn26 n20 CKb n21 VSS nfet_01v8 W=425n L=150n M=1
Mmn25 n21 D VSS VSS nfet_01v8 W=425n L=150n M=1
Mmn57 QN net331 VSS VSS nfet_01v8 W=3.04u L=150n M=1
Mmn55 Q qbint VSS VSS nfet_01v8 W=3.04u L=150n M=1
Mmn30 n25 SN VSS VSS nfet_01v8 W=425n L=150n M=1
Mmn31 mout n20 n25 VSS nfet_01v8 W=425n L=150n M=1
Mmn35 n20 CKbb n30 VSS nfet_01v8 W=425n L=150n M=1
Mmn36 n30 mout VSS VSS nfet_01v8 W=425n L=150n M=1
Mmn56 net331 qbint VSS VSS nfet_01v8 W=760n L=150n M=1
Mmn20 CKb CK VSS VSS nfet_01v8 W=425n L=150n M=1
Mmn21 CKbb CKb VSS VSS nfet_01v8 W=425n L=150n M=1
Mmn45 qbint n35 VSS VSS nfet_01v8 W=1.2u L=150n M=1
Mmn40 n35 CKbb mout VSS nfet_01v8 W=425n L=150n M=1
Mmp26 n20 CKbb n22 VDD pfet_01v8 W=625n L=150n M=1
Mmp25 n22 D VDD VDD pfet_01v8 W=625n L=150n M=1
Mmp57 QN net331 VDD VDD pfet_01v8 W=4.52u L=150n M=1
Mmp55 Q qbint VDD VDD pfet_01v8 W=4.52u L=150n M=1
Mmp36 n20 CKb n31 VDD pfet_01v8 W=625n L=150n M=1
Mmp35 n31 mout VDD VDD pfet_01v8 W=625n L=150n M=1
Mmp20 CKb CK VDD VDD pfet_01v8 W=625n L=150n M=1
Mmp31 mout n20 VDD VDD pfet_01v8 W=625n L=150n M=1
Mmp40 n35 CKb mout VDD pfet_01v8 W=625n L=150n M=1
Mmp56 net331 qbint VDD VDD pfet_01v8 W=1.13u L=150n M=1
Mmp45 qbint n35 VDD VDD pfet_01v8 W=1.81u L=150n M=1
Mmp52 n35 CKbb n41 VDD pfet_01v8 W=625n L=150n M=1
Mmp21 CKbb CKb VDD VDD pfet_01v8 W=625n L=150n M=1
Mmp30 mout SN VDD VDD pfet_01v8 W=625n L=150n M=1
Mmp51 n41 qbint VDD VDD pfet_01v8 W=625n L=150n M=1
Mmp50 n41 SN VDD VDD pfet_01v8 W=625n L=150n M=1
.ENDS

************************************************************************
* Library Name: sky130_scl_9T
* Cell Name:    SDFFSX4
* View Name:    schematic
************************************************************************

.SUBCKT SDFFSX4 CK D Q QN SE SI SN VDD VSS
*.PININFO CK:I D:I SE:I SI:I SN:I VDD:I VSS:I Q:O QN:O
Mmn51 net518 qbint net521 VSS nfet_01v8 W=425n L=150n M=1
Mmn52 n35 CKb net518 VSS nfet_01v8 W=425n L=150n M=1
Mmn50 net521 SN VSS VSS nfet_01v8 W=425n L=150n M=1
Mmn13 net506 SI VSS VSS nfet_01v8 W=425n L=150n M=1
Mmn14 Db SE net506 VSS nfet_01v8 W=425n L=150n M=1
Mmn12 Db SEb net494 VSS nfet_01v8 W=425n L=150n M=1
Mmn11 net494 D VSS VSS nfet_01v8 W=425n L=150n M=1
Mmn57 QN net492 VSS VSS nfet_01v8 W=3.04u L=150n M=1
Mmn55 Q qbint VSS VSS nfet_01v8 W=3.04u L=150n M=1
Mmn31 mout n20 net442 VSS nfet_01v8 W=425n L=150n M=1
Mmn35 net478 mout VSS VSS nfet_01v8 W=425n L=150n M=1
Mmn36 n20 CKbb net478 VSS nfet_01v8 W=425n L=150n M=1
Mmn20 CKb CK VSS VSS nfet_01v8 W=425n L=150n M=1
Mmn45 qbint n35 VSS VSS nfet_01v8 W=1.2u L=150n M=1
Mmn56 net492 qbint VSS VSS nfet_01v8 W=760n L=150n M=1
Mmn21 CKbb CKb VSS VSS nfet_01v8 W=425n L=150n M=1
Mmn40 n35 CKbb mout VSS nfet_01v8 W=425n L=150n M=1
Mmn10 SEb SE VSS VSS nfet_01v8 W=425n L=150n M=1
Mmn25 Db CKb n20 VSS nfet_01v8 W=425n L=150n M=1
Mmn30 net442 SN VSS VSS nfet_01v8 W=425n L=150n M=1
Mmp14 Db SEb net441 VDD pfet_01v8 W=625n L=150n M=1
Mmp13 net441 SI VDD VDD pfet_01v8 W=625n L=150n M=1
Mmp12 Db SE net433 VDD pfet_01v8 W=625n L=150n M=1
Mmp11 net433 D VDD VDD pfet_01v8 W=625n L=150n M=1
Mmp57 QN net492 VDD VDD pfet_01v8 W=4.52u L=150n M=1
Mmp55 Q qbint VDD VDD pfet_01v8 W=4.52u L=150n M=1
Mmp36 n20 CKb net417 VDD pfet_01v8 W=625n L=150n M=1
Mmp35 net417 mout VDD VDD pfet_01v8 W=625n L=150n M=1
Mmp20 CKb CK VDD VDD pfet_01v8 W=625n L=150n M=1
Mmp52 n35 CKbb net405 VDD pfet_01v8 W=625n L=150n M=1
Mmp51 net405 qbint VDD VDD pfet_01v8 W=625n L=150n M=1
Mmp50 net405 SN VDD VDD pfet_01v8 W=625n L=150n M=1
Mmp45 qbint n35 VDD VDD pfet_01v8 W=1.81u L=150n M=1
Mmp56 net492 qbint VDD VDD pfet_01v8 W=1.13u L=150n M=1
Mmp21 CKbb CKb VDD VDD pfet_01v8 W=625n L=150n M=1
Mmp40 n35 CKb mout VDD pfet_01v8 W=625n L=150n M=1
Mmp30 mout SN VDD VDD pfet_01v8 W=625n L=150n M=1
Mmp31 mout n20 VDD VDD pfet_01v8 W=625n L=150n M=1
Mmp25 n20 CKbb Db VDD pfet_01v8 W=625n L=150n M=1
Mmp10 SEb SE VDD VDD pfet_01v8 W=625n L=150n M=1
.ENDS

************************************************************************
* Library Name: sky130_scl_9T
* Cell Name:    CLKINVX2
* View Name:    schematic
************************************************************************

.SUBCKT CLKINVX2 A Y VDD VSS
*.PININFO A:I VDD:I VSS:I Y:O
Mmp0 Y A VDD VDD pfet_01v8 W=2.26u L=150n M=1
Mmn0 Y A VSS VSS nfet_01v8 W=1.52u L=150n M=1
.ENDS

************************************************************************
* Library Name: sky130_scl_9T
* Cell Name:    OAI21X2
* View Name:    schematic
************************************************************************

.SUBCKT OAI21X2 A0 A1 B0 Y VDD VSS
*.PININFO A0:I A1:I B0:I VDD:I VSS:I Y:O
Mmn2 Y B0 n0 VSS nfet_01v8 W=1.52u L=150n M=1
Mmn1 n0 A1 VSS VSS nfet_01v8 W=1.52u L=150n M=1
Mmn0 n0 A0 VSS VSS nfet_01v8 W=1.52u L=150n M=1
Mmp0 n1 A0 VDD VDD pfet_01v8 W=2.26u L=150n M=1
Mmp2 Y B0 VDD VDD pfet_01v8 W=2.26u L=150n M=1
Mmp1 Y A1 n1 VDD pfet_01v8 W=2.26u L=150n M=1
.ENDS

************************************************************************
* Library Name: sky130_scl_9T
* Cell Name:    CLKBUFX4
* View Name:    schematic
************************************************************************

.SUBCKT CLKBUFX4 A Y VDD VSS
*.PININFO A:I VDD:I VSS:I Y:O
Mmn1 Y net44 VSS VSS nfet_01v8 W=3.04u L=150n M=1
Mmn0 net44 A VSS VSS nfet_01v8 W=760n L=150n M=1
Mmp1 Y net44 VDD VDD pfet_01v8 W=4.52u L=150n M=1
Mmp0 net44 A VDD VDD pfet_01v8 W=1.13u L=150n M=1
.ENDS

************************************************************************
* Library Name: sky130_scl_9T
* Cell Name:    XOR2X4
* View Name:    schematic
************************************************************************

.SUBCKT XOR2X4 A B Y VDD VSS
*.PININFO A:I B:I VDD:I VSS:I Y:O
Mmn1 n2 B VSS VSS nfet_01v8 W=425n L=150n M=1
Mmn0 n1 A VSS VSS nfet_01v8 W=425n L=150n M=1
Mmn5 Y n0 VSS VSS nfet_01v8 W=3.04u L=150n M=1
Mmn3 n0 B net131 VSS nfet_01v8 W=760n L=150n M=1
Mmn4 n0 n2 n1 VSS nfet_01v8 W=760n L=150n M=1
Mmn2 net131 n1 VSS VSS nfet_01v8 W=760n L=150n M=1
Mmp3 n0 n2 net130 VDD pfet_01v8 W=1.13u L=150n M=1
Mmp1 n2 B VDD VDD pfet_01v8 W=625n L=150n M=1
Mmp4 n1 B n0 VDD pfet_01v8 W=1.13u L=150n M=1
Mmp0 n1 A VDD VDD pfet_01v8 W=625n L=150n M=1
Mmp5 Y n0 VDD VDD pfet_01v8 W=4.52u L=150n M=1
Mmp2 net130 n1 VDD VDD pfet_01v8 W=1.13u L=150n M=1
.ENDS

************************************************************************
* Library Name: sky130_scl_9T
* Cell Name:    AND3X2
* View Name:    schematic
************************************************************************

.SUBCKT AND3X2 A B C Y VDD VSS
*.PININFO A:I B:I C:I VDD:I VSS:I Y:O
Mmn3 Y net95 VSS VSS nfet_01v8 W=1.52u L=150n M=1
Mmn1 net111 B net103 VSS nfet_01v8 W=425n L=150n M=1
Mmn0 net103 A VSS VSS nfet_01v8 W=425n L=150n M=1
Mmn2 net95 C net111 VSS nfet_01v8 W=425n L=150n M=1
Mmp1 net95 B VDD VDD pfet_01v8 W=625n L=150n M=1
Mmp2 net95 C VDD VDD pfet_01v8 W=625n L=150n M=1
Mmp0 net95 A VDD VDD pfet_01v8 W=625n L=150n M=1
Mmp3 Y net95 VDD VDD pfet_01v8 W=2.26u L=150n M=1
.ENDS

************************************************************************
* Library Name: sky130_scl_9T
* Cell Name:    NOR4X4
* View Name:    schematic
************************************************************************

.SUBCKT NOR4X4 A B C D Y VDD VSS
*.PININFO A:I B:I C:I D:I VDD:I VSS:I Y:O
Mmn2 Y C VSS VSS nfet_01v8 W=3.04u L=150n M=1
Mmn3 Y D VSS VSS nfet_01v8 W=3.04u L=150n M=1
Mmn0 Y A VSS VSS nfet_01v8 W=3.04u L=150n M=1
Mmn1 Y B VSS VSS nfet_01v8 W=3.04u L=150n M=1
Mmp1 n1 B n0 VDD pfet_01v8 W=4.52u L=150n M=1
Mmp3 Y D n2 VDD pfet_01v8 W=4.52u L=150n M=1
Mmp2 n2 C n1 VDD pfet_01v8 W=4.52u L=150n M=1
Mmp0 n0 A VDD VDD pfet_01v8 W=4.52u L=150n M=1
.ENDS

************************************************************************
* Library Name: sky130_scl_9T
* Cell Name:    NOR2X4
* View Name:    schematic
************************************************************************

.SUBCKT NOR2X4 A B Y VDD VSS
*.PININFO A:I B:I VDD:I VSS:I Y:O
Mmn1 Y B VSS VSS nfet_01v8 W=3.04u L=150n M=1
Mmn0 Y A VSS VSS nfet_01v8 W=3.04u L=150n M=1
Mmp1 Y B net41 VDD pfet_01v8 W=4.52u L=150n M=1
Mmp0 net41 A VDD VDD pfet_01v8 W=4.52u L=150n M=1
.ENDS

************************************************************************
* Library Name: sky130_scl_9T
* Cell Name:    DFFSX1
* View Name:    schematic
************************************************************************

.SUBCKT DFFSX1 CK D Q QN SN VDD VSS
*.PININFO CK:I D:I SN:I VDD:I VSS:I Q:O QN:O
Mmn51 n40 qbint n42 VSS nfet_01v8 W=425n L=150n M=1
Mmn52 n35 CKb n40 VSS nfet_01v8 W=425n L=150n M=1
Mmn50 n42 SN VSS VSS nfet_01v8 W=425n L=150n M=1
Mmn26 n20 CKb n21 VSS nfet_01v8 W=425n L=150n M=1
Mmn25 n21 D VSS VSS nfet_01v8 W=425n L=150n M=1
Mmn57 QN net331 VSS VSS nfet_01v8 W=760n L=150n M=1
Mmn55 Q qbint VSS VSS nfet_01v8 W=760n L=150n M=1
Mmn30 n25 SN VSS VSS nfet_01v8 W=425n L=150n M=1
Mmn31 mout n20 n25 VSS nfet_01v8 W=425n L=150n M=1
Mmn35 n20 CKbb n30 VSS nfet_01v8 W=425n L=150n M=1
Mmn36 n30 mout VSS VSS nfet_01v8 W=425n L=150n M=1
Mmn56 net331 qbint VSS VSS nfet_01v8 W=425n L=150n M=1
Mmn20 CKb CK VSS VSS nfet_01v8 W=425n L=150n M=1
Mmn21 CKbb CKb VSS VSS nfet_01v8 W=425n L=150n M=1
Mmn45 qbint n35 VSS VSS nfet_01v8 W=425n L=150n M=1
Mmn40 n35 CKbb mout VSS nfet_01v8 W=425n L=150n M=1
Mmp26 n20 CKbb n22 VDD pfet_01v8 W=625n L=150n M=1
Mmp25 n22 D VDD VDD pfet_01v8 W=625n L=150n M=1
Mmp57 QN net331 VDD VDD pfet_01v8 W=1.13u L=150n M=1
Mmp55 Q qbint VDD VDD pfet_01v8 W=1.13u L=150n M=1
Mmp36 n20 CKb n31 VDD pfet_01v8 W=625n L=150n M=1
Mmp35 n31 mout VDD VDD pfet_01v8 W=625n L=150n M=1
Mmp20 CKb CK VDD VDD pfet_01v8 W=625n L=150n M=1
Mmp31 mout n20 VDD VDD pfet_01v8 W=625n L=150n M=1
Mmp40 n35 CKb mout VDD pfet_01v8 W=625n L=150n M=1
Mmp56 net331 qbint VDD VDD pfet_01v8 W=625n L=150n M=1
Mmp45 qbint n35 VDD VDD pfet_01v8 W=625n L=150n M=1
Mmp52 n35 CKbb n41 VDD pfet_01v8 W=625n L=150n M=1
Mmp21 CKbb CKb VDD VDD pfet_01v8 W=625n L=150n M=1
Mmp30 mout SN VDD VDD pfet_01v8 W=625n L=150n M=1
Mmp51 n41 qbint VDD VDD pfet_01v8 W=625n L=150n M=1
Mmp50 n41 SN VDD VDD pfet_01v8 W=625n L=150n M=1
.ENDS

************************************************************************
* Library Name: sky130_scl_9T
* Cell Name:    SDFFSX1
* View Name:    schematic
************************************************************************

.SUBCKT SDFFSX1 CK D Q QN SE SI SN VDD VSS
*.PININFO CK:I D:I SE:I SI:I SN:I VDD:I VSS:I Q:O QN:O
Mmn51 net518 qbint net521 VSS nfet_01v8 W=425n L=150n M=1
Mmn52 n35 CKb net518 VSS nfet_01v8 W=425n L=150n M=1
Mmn50 net521 SN VSS VSS nfet_01v8 W=425n L=150n M=1
Mmn13 net506 SI VSS VSS nfet_01v8 W=425n L=150n M=1
Mmn14 Db SE net506 VSS nfet_01v8 W=425n L=150n M=1
Mmn12 Db SEb net494 VSS nfet_01v8 W=425n L=150n M=1
Mmn11 net494 D VSS VSS nfet_01v8 W=425n L=150n M=1
Mmn57 QN net492 VSS VSS nfet_01v8 W=760n L=150n M=1
Mmn55 Q qbint VSS VSS nfet_01v8 W=760n L=150n M=1
Mmn31 mout n20 net442 VSS nfet_01v8 W=425n L=150n M=1
Mmn35 net478 mout VSS VSS nfet_01v8 W=425n L=150n M=1
Mmn36 n20 CKbb net478 VSS nfet_01v8 W=425n L=150n M=1
Mmn20 CKb CK VSS VSS nfet_01v8 W=425n L=150n M=1
Mmn45 qbint n35 VSS VSS nfet_01v8 W=425n L=150n M=1
Mmn56 net492 qbint VSS VSS nfet_01v8 W=425n L=150n M=1