*
*|DSPF 1.5
*
*|DATE "Tue Jan 23 13:59:08 2024"
*|VENDOR "Cadence Design Systems"
*|PROGRAM "Cadence Quantus Extraction"
*|VERSION "22.1.0-p089 Linux 64 bit - (Thu Jan 19 11:47:08 PST 2023)"
*|DESIGN "ADDFX1"
*|DIVIDER /
*|DELIMITER #
*|DeviceFingerDelim "@"
*|BUSBIT []
*|GLOBAL_TEMPERATURE 25
*|OPERATING_TEMPERATURE 25
** QRC_TECH_DIR /vols/wfo_devel/projects/reference_SKY130/tech/sky130_release_0.0.1/quantus/extraction/typical 
** caps2d version: 10
*
.GLOBAL VDD VSS
*
.SUBCKT  ADDFX1 A B CI CO S
*
*Net Section
*
*|GROUND_NET VSS
*
*|NET A 1.34851e-15
*|P (A X 0 3.6920 2.3920)
*|I (MX66/M0#g MX66/M0 g X 0 3.1450 0.8025)
*|I (MX64/M0#g MX64/M0 g X 0 0.4750 0.8025)
*|I (MX61/M0#g MX61/M0 g X 0 1.7650 0.8025)
*|I (MX43/M0#g MX43/M0 g X 0 4.4350 0.8025)
*|I (MX55/M0#g MX55/M0 g X 0 4.4350 3.2375)
*|I (MX51/M0#g MX51/M0 g X 0 1.7650 3.2375)
*|I (MX46/M0#g MX46/M0 g X 0 0.4750 3.2375)
*|I (MX45/M0#g MX45/M0 g X 0 3.1450 3.2375)
*|S (A#25 0.4750 2.6500)
*|S (A#26 1.7650 2.6500)
*|S (A#27 3.1450 2.6500)
*|S (A#28 4.4350 2.6500)
*|S (A#30 3.6800 2.6500)
*|S (A#31 3.1450 2.6500)
*|S (A#32 1.7650 2.6500)
C1 MX45/M0#g VSS 4.98184e-17
C2 MX46/M0#g VSS 4.67084e-17
C3 MX51/M0#g VSS 4.62975e-17
C4 MX55/M0#g VSS 4.59719e-17
C5 MX43/M0#g VSS 4.58946e-17
C6 MX61/M0#g VSS 4.39522e-17
C7 MX64/M0#g VSS 3.904e-17
C8 MX66/M0#g VSS 4.70593e-17
C9 A#30 VSS 9.09593e-17
C10 A#25 VSS 1.52751e-16
C11 A#26 VSS 2.23242e-16
C12 A#27 VSS 1.37598e-16
C13 A#28 VSS 1.09678e-16
C14 A VSS 2.69539e-16
Rg1 MX46/M0#g A#25 169.942413 $W=0.15
Rg2 A#25 MX64/M0#g 574.822449 $W=0.15
Rg3 MX51/M0#g A#26 169.942413 $W=0.15
Rg4 A#26 MX61/M0#g 574.822449 $W=0.15
Rg5 MX45/M0#g A#27 169.942413 $W=0.15
Rg6 A#27 MX66/M0#g 574.822449 $W=0.15
Rg7 MX55/M0#g A#28 169.942413 $W=0.15
Rg8 A#28 MX43/M0#g 574.822449 $W=0.15
Rf9 A#28 A#30 71.847061 $W=0.17
Rf10 A#30 A#31 40.282352 $W=0.17
Rf11 A#31 A#32 103.905884 $W=0.17
Rf12 A#32 A#25 112.129410 $W=0.17
Rf13 A#27 A#31 15.000000 $W=0.0289
Rf14 A#26 A#32 15.000000 $W=0.0289
Re15 A A#30 152.124039 $W=0.26
*
*|NET B 1.35903e-15
*|P (B X 0 4.6120 1.5480)
*|I (MX68/M0#g MX68/M0 g X 0 0.9050 0.8025)
*|I (MX65/M0#g MX65/M0 g X 0 4.8650 0.8025)
*|I (MX63/M0#g MX63/M0 g X 0 3.5750 0.8025)
*|I (MX59/M0#g MX59/M0 g X 0 2.1950 0.8025)
*|I (MX56/M0#g MX56/M0 g X 0 4.8650 3.2375)
*|I (MX53/M0#g MX53/M0 g X 0 3.5750 3.2375)
*|I (MX48/M0#g MX48/M0 g X 0 0.9050 3.2375)
*|I (MX47/M0#g MX47/M0 g X 0 2.1950 3.2375)
*|S (B#25 0.9050 1.2900)
*|S (B#26 2.1950 1.2900)
*|S (B#27 3.5750 1.2900)
*|S (B#28 4.8650 1.2900)
*|S (B#30 4.6000 1.2900)
*|S (B#31 3.5750 1.2900)
*|S (B#32 2.1950 1.2900)
C15 MX47/M0#g VSS 5.69052e-17
C16 MX48/M0#g VSS 6.13759e-17
C17 MX53/M0#g VSS 5.17845e-17
C18 MX56/M0#g VSS 5.29401e-17
C19 MX59/M0#g VSS 4.01971e-17
C20 MX63/M0#g VSS 3.66217e-17
C21 MX65/M0#g VSS 4.248e-17
C22 MX68/M0#g VSS 4.43386e-17
C23 B#30 VSS 9.24982e-17
C24 B#25 VSS 1.66405e-16
C25 B#26 VSS 1.97599e-16
C26 B#27 VSS 1.87706e-16
C27 B#28 VSS 5.84744e-17
C28 B VSS 2.69707e-16
Rg16 MX48/M0#g B#25 606.955750 $W=0.15
Rg17 B#25 MX68/M0#g 137.809082 $W=0.15
Rg18 MX47/M0#g B#26 606.955750 $W=0.15
Rg19 B#26 MX59/M0#g 137.809082 $W=0.15
Rg20 MX53/M0#g B#27 606.955750 $W=0.15
Rg21 B#27 MX63/M0#g 137.809082 $W=0.15
Rg22 MX56/M0#g B#28 606.955750 $W=0.15
Rg23 B#28 MX65/M0#g 137.809082 $W=0.15
Rf24 B#28 B#30 34.952942 $W=0.17
Rf25 B#30 B#31 77.176468 $W=0.17
Rf26 B#31 B#32 103.905884 $W=0.17
Rf27 B#32 B#25 112.129410 $W=0.17
Rf28 B#27 B#31 15.000000 $W=0.0289
Rf29 B#26 B#32 15.000000 $W=0.0289
Re30 B B#30 152.124039 $W=0.26
*
*|NET CI 1.38757e-15
*|P (CI X 0 4.1420 2.0630)
*|I (MX60/M0#g MX60/M0 g X 0 5.2950 0.8025)
*|I (MX58/M0#g MX58/M0 g X 0 1.3350 0.8025)
*|I (MX42/M0#g MX42/M0 g X 0 4.0050 0.8025)
*|I (MX54/M0#g MX54/M0 g X 0 4.0050 3.2375)
*|I (MX50/M0#g MX50/M0 g X 0 1.3350 3.2375)
*|I (MX49/M0#g MX49/M0 g X 0 5.2950 3.2375)
*|S (CI#19 1.3350 1.8050)
*|S (CI#20 4.0050 1.8050)
*|S (CI#21 5.2950 1.8050)
*|S (CI#23 4.1400 1.8050)
*|S (CI#24 4.0050 1.8050)
C29 MX49/M0#g VSS 5.31909e-17
C30 MX50/M0#g VSS 5.83462e-17
C31 MX54/M0#g VSS 5.28742e-17
C32 MX42/M0#g VSS 4.7514e-17
C33 MX58/M0#g VSS 5.23172e-17
C34 MX60/M0#g VSS 4.12237e-17
C35 CI#19 VSS 2.71302e-16
C36 CI#20 VSS 3.44249e-16
C37 CI#21 VSS 1.53856e-16
C38 CI VSS 3.12694e-16
Rg31 MX50/M0#g CI#19 441.469086 $W=0.15
Rg32 CI#19 MX58/M0#g 303.295746 $W=0.15
Rg33 MX54/M0#g CI#20 441.469086 $W=0.15
Rg34 CI#20 MX42/M0#g 303.295746 $W=0.15
Rg35 MX49/M0#g CI#21 441.469086 $W=0.15
Rg36 CI#21 MX60/M0#g 303.295746 $W=0.15
Rf37 CI#21 CI#23 101.964706 $W=0.17
Rf38 CI#23 CI#24 10.164705 $W=0.17
Rf39 CI#24 CI#19 216.035294 $W=0.17
Rf40 CI#20 CI#24 15.000000 $W=0.0289
Re41 CI CI#23 152.124039 $W=0.26
*
*|NET CO 7.58372e-16
*|P (CO X 0 6.4520 1.8530)
*|I (MX62/M0#d MX62/M0 d X 0 6.5995 0.9700)
*|I (MX41/M0#d MX41/M0 d X 0 6.5995 2.9850)
*|S (CO#1 6.4600 3.0250)
*|S (CO#4 6.4600 0.9350)
C39 MX41/M0#d VSS 1.48877e-16
C40 CO#4 VSS 2.89442e-16
C41 CO#1 VSS 2.23353e-16
C42 CO VSS 9.67e-17
Rf42 CO#1 MX41/M0#d 5.616868 $W=0.83
Rf43 MX62/M0#d CO#4 8.423712 $W=0.485
Re44 CO CO#4 76.438400 $W=0.26
Re45 CO CO#1 51.225548 $W=0.26
*
*|NET S 5.90398e-16
*|P (S X 0 7.3720 1.8530)
*|I (MX44/M0#d MX44/M0 d X 0 7.1805 0.9700)
*|I (MX52/M0#d MX52/M0 d X 0 7.1805 2.9850)
*|S (S#1 7.3200 3.0250)
*|S (S#4 7.3200 0.9350)
C43 MX52/M0#d VSS 1.02512e-16
C44 S#4 VSS 2.25202e-16
C45 S#1 VSS 1.8108e-16
C46 S VSS 8.16049e-17
Rf46 S#1 MX52/M0#d 5.616868 $W=0.83
Rf47 MX44/M0#d S#4 8.423712 $W=0.485
Re48 S S#4 76.427643 $W=0.26
Re49 S S#1 51.208832 $W=0.26
*
*|NET 1 4.05535e-16
*|I (MX51/M0#d MX51/M0 d X 0 1.6895 3.2375)
*|I (MX50/M0#s MX50/M0 s X 0 1.4105 3.2375)
*|I (MX47/M0#d MX47/M0 d X 0 2.2705 3.2375)
*|S (1 1.5500 3.2350)
*|S (1#3 2.4100 3.2350)
C47 MX47/M0#d VSS 1.08043e-16
C48 MX51/M0#d VSS 1.19708e-16
C49 1#3 VSS 8.64495e-17
C50 1 VSS 9.13341e-17
Rf50 1 MX51/M0#d 15.000000 $W=0.17
Rf51 1#3 MX47/M0#d 15.000000 $W=0.17
Re52 1#3 1 304.632355 $W=0.17
Rmw53 MX50/M0#s MX51/M0#d 0.001000 $W=1000000
*
*|NET 2 8.67042e-16
*|I (MX57/M0#s MX57/M0 s X 0 5.8005 3.2375)
*|I (MX54/M0#d MX54/M0 d X 0 3.9295 3.2375)
*|I (MX53/M0#d MX53/M0 d X 0 3.6505 3.2375)
*|I (MX45/M0#d MX45/M0 d X 0 3.0695 3.2375)
*|S (2 2.9300 3.2350)
*|S (2#3 3.7900 3.2350)
*|S (2#5 5.9400 3.2350)
C51 MX45/M0#d VSS 1.07546e-16
C52 MX54/M0#d VSS 1.23531e-16
C53 MX57/M0#s VSS 1.00417e-16
C54 2#3 VSS 2.30708e-16
C55 2#5 VSS 2.18243e-16
C56 2 VSS 8.65967e-17
Rf54 2 MX45/M0#d 15.000000 $W=0.17
Rf55 2#3 MX54/M0#d 167.000000 $W=0.17
Rf56 2#5 MX57/M0#s 15.000000 $W=0.17
Re57 2#5 2#3 153.580887 $W=0.17
Re58 2#3 2 152.632355 $W=0.17
Rmw59 MX53/M0#d MX54/M0#d 0.001000 $W=1000000
*
*|NET 3 8.66032e-16
*|I (MX67/M0#s MX67/M0 s X 0 5.8005 0.8025)
*|I (MX66/M0#d MX66/M0 d X 0 3.0695 0.8025)
*|I (MX63/M0#d MX63/M0 d X 0 3.6505 0.8025)
*|I (MX42/M0#d MX42/M0 d X 0 3.9295 0.8025)
*|S (3#2 2.9300 0.7450)
*|S (3#4 3.7900 0.7450)
*|S (3 5.9400 0.7450)
C57 3#2 VSS 1.98125e-16
C58 3#4 VSS 3.5244e-16
C59 3 VSS 3.15468e-16
Rf60 MX66/M0#d 3#2 19.141176 $W=0.17
Rf61 MX63/M0#d 3#4 171.141174 $W=0.17
Rf62 MX67/M0#s 3 19.141176 $W=0.17
Re63 3 3#4 153.840027 $W=0.14
Re64 3#4 3#2 152.688248 $W=0.14
Rmw65 MX42/M0#d MX63/M0#d 0.001000 $W=1000000
*
*|NET 4 1.78497e-15
*|I (MX68/M0#d MX68/M0 d X 0 0.9805 0.8025)
*|I (MX67/M0#g MX67/M0 g X 0 5.7250 0.8025)
*|I (MX62/M0#g MX62/M0 g X 0 6.6750 0.9700)
*|I (MX58/M0#d MX58/M0 d X 0 1.2595 0.8025)
*|I (MX57/M0#g MX57/M0 g X 0 5.7250 3.2375)
*|I (MX50/M0#d MX50/M0 d X 0 1.2595 3.2375)
*|I (MX48/M0#d MX48/M0 d X 0 0.9805 3.2375)
*|I (MX41/M0#g MX41/M0 g X 0 6.6750 2.9850)
*|S (4 6.6750 2.9850)
*|S (4#13 5.7850 2.1450)
*|S (4#14 6.6150 2.1450)
*|S (4#15 1.1200 3.2350)
*|S (4#17 1.1200 0.8000)
*|S (4#20 5.7850 2.1450)
*|S (4#21 1.1200 2.1450)
C60 MX57/M0#g VSS 4.99953e-17
C61 MX62/M0#g VSS 6.67814e-17
C62 MX67/M0#g VSS 4.49941e-17
C63 MX68/M0#d VSS 8.70111e-17
C64 4#17 VSS 1.35797e-16
C65 4#21 VSS 5.18362e-16
C66 4#15 VSS 2.15473e-16
C67 4#13 VSS 4.78095e-16
C68 4#14 VSS 1.13637e-16
C69 4 VSS 7.48255e-17
Rg66 MX57/M0#g 4#13 336.939270 $W=0.15
Rg67 4#13 MX67/M0#g 417.272614 $W=0.15
Rg68 4 4#14 255.802612 $W=0.15
Rg69 4#14 MX62/M0#g 363.449280 $W=0.15
Rf70 4#15 MX50/M0#d 15.000000 $W=0.17
Rf71 4#17 MX68/M0#d 15.000000 $W=0.17
Rf72 4#14 4#20 77.494118 $W=0.17
Rf73 4#20 4#21 503.247070 $W=0.17
Rf74 4#13 4#20 15.000000 $W=0.0289
Re75 4#15 4#21 152.902634 $W=0.14
Re76 4#21 4#17 153.118576 $W=0.14
Rmw77 MX58/M0#d MX68/M0#d 0.001000 $W=1000000
Rmw78 MX48/M0#d MX50/M0#d 0.001000 $W=1000000
Rmw79 MX41/M0#g 4 0.001000 $W=1000000
*
*|NET 5 3.99125e-16
*|I (MX61/M0#d MX61/M0 d X 0 1.6895 0.8025)
*|I (MX59/M0#d MX59/M0 d X 0 2.2705 0.8025)
*|I (MX58/M0#s MX58/M0 s X 0 1.4105 0.8025)
*|S (5 1.5500 0.8000)
*|S (5#3 2.4100 0.8000)
C70 MX59/M0#d VSS 8.31965e-17
C71 MX61/M0#d VSS 9.11024e-17
C72 5#3 VSS 1.08172e-16
C73 5 VSS 1.16654e-16
Rf80 5 MX61/M0#d 15.000000 $W=0.17
Rf81 5#3 MX59/M0#d 15.000000 $W=0.17
Re82 5#3 5 304.688232 $W=0.14
Rmw83 MX58/M0#s MX61/M0#d 0.001000 $W=1000000
*
*|NET 6 1.0321e-15
*|I (MX67/M0#d MX67/M0 d X 0 5.6495 0.8025)
*|I (MX60/M0#d MX60/M0 d X 0 5.3705 0.8025)
*|I (MX44/M0#g MX44/M0 g X 0 7.1050 0.9700)
*|I (MX57/M0#d MX57/M0 d X 0 5.6495 3.2375)
*|I (MX52/M0#g MX52/M0 g X 0 7.1050 2.9850)
*|I (MX49/M0#d MX49/M0 d X 0 5.3705 3.2375)
*|S (6 7.1050 2.9850)
*|S (6#7 7.1650 1.6250)
*|S (6#9 5.5100 2.7350)
*|S (6#11 5.5100 1.2700)
C74 MX57/M0#d VSS 1.07272e-16
C75 MX44/M0#g VSS 5.40071e-17
C76 MX67/M0#d VSS 8.93304e-17
C77 6#11 VSS 3.09143e-16
C78 6#9 VSS 2.05342e-16
C79 6#7 VSS 1.90935e-16
C80 6 VSS 7.60678e-17
Rg84 6 6#7 422.895935 $W=0.15
Rg85 6#7 MX44/M0#g 196.355942 $W=0.15
Rf86 MX57/M0#d 6#9 52.647057 $W=0.17
Rf87 6#7 6#11 155.044632 $W=0.17
Rf88 6#11 MX67/M0#d 48.340237 $W=0.17
Re89 6#9 6#11 305.225708 $W=0.14
Rmw90 MX60/M0#d MX67/M0#d 0.001000 $W=1000000
Rmw91 MX52/M0#g 6 0.001000 $W=1000000
Rmw92 MX49/M0#d MX57/M0#d 0.001000 $W=1000000
*
*|NET 24 9.86442e-17
*|I (MX68/M0#s MX68/M0 s X 0 0.8295 0.8025)
*|I (MX64/M0#d MX64/M0 d X 0 0.5505 0.8025)
*|S (24 0.6900 0.8000)
C81 24 VSS 9.86442e-17
Rmw93 MX68/M0#s 24 0.001000 $W=1000000
Rmw94 MX64/M0#d 24 0.001000 $W=1000000
*
*|NET 26 1.31145e-16
*|I (MX48/M0#s MX48/M0 s X 0 0.8295 3.2375)
*|I (MX46/M0#d MX46/M0 d X 0 0.5505 3.2375)
*|S (26 0.6900 3.2350)
C82 26 VSS 1.31145e-16
Rmw95 MX48/M0#s 26 0.001000 $W=1000000
Rmw96 MX46/M0#d 26 0.001000 $W=1000000
*
*|NET 28 1.15248e-16
*|I (MX65/M0#s MX65/M0 s X 0 4.7895 0.8025)
*|I (MX43/M0#d MX43/M0 d X 0 4.5105 0.8025)
*|S (28 4.6500 0.8000)
C83 28 VSS 1.15248e-16
Rmw97 MX65/M0#s 28 0.001000 $W=1000000
Rmw98 MX43/M0#d 28 0.001000 $W=1000000
*
*|NET 30 1.4013e-16
*|I (MX56/M0#s MX56/M0 s X 0 4.7895 3.2375)
*|I (MX55/M0#d MX55/M0 d X 0 4.5105 3.2375)
*|S (30 4.6500 3.2350)
C84 30 VSS 1.4013e-16
Rmw99 MX56/M0#s 30 0.001000 $W=1000000
Rmw100 MX55/M0#d 30 0.001000 $W=1000000
*
*|NET 32 1.07771e-16
*|I (MX65/M0#d MX65/M0 d X 0 4.9405 0.8025)
*|I (MX60/M0#s MX60/M0 s X 0 5.2195 0.8025)
*|S (32 5.0800 0.8000)
C85 32 VSS 1.07771e-16
Rmw101 MX65/M0#d 32 0.001000 $W=1000000
Rmw102 MX60/M0#s 32 0.001000 $W=1000000
*
*|NET 34 1.38047e-16
*|I (MX56/M0#d MX56/M0 d X 0 4.9405 3.2375)
*|I (MX49/M0#s MX49/M0 s X 0 5.2195 3.2375)
*|S (34 5.0800 3.2350)
C86 34 VSS 1.38047e-16
Rmw103 MX56/M0#d 34 0.001000 $W=1000000
Rmw104 MX49/M0#s 34 0.001000 $W=1000000
*
*Instance Section
*
MX68/M0	MX68/M0#d	MX68/M0#g	MX68/M0#s	VSS	nfet_01v8
+ L=1.5e-07	W=4.25e-07
MX67/M0	MX67/M0#d	MX67/M0#g	MX67/M0#s	VSS	nfet_01v8
+ L=1.5e-07	W=4.25e-07
MX66/M0	MX66/M0#d	MX66/M0#g	VSS	VSS	nfet_01v8
+ L=1.5e-07	W=4.25e-07
MX65/M0	MX65/M0#d	MX65/M0#g	MX65/M0#s	VSS	nfet_01v8
+ L=1.5e-07	W=4.25e-07
MX64/M0	MX64/M0#d	MX64/M0#g	VSS	VSS	nfet_01v8
+ L=1.5e-07	W=4.25e-07
MX63/M0	MX63/M0#d	MX63/M0#g	VSS	VSS	nfet_01v8
+ L=1.5e-07	W=4.25e-07
MX62/M0	MX62/M0#d	MX62/M0#g	VSS	VSS	nfet_01v8
+ L=1.5e-07	W=7.6e-07
MX61/M0	MX61/M0#d	MX61/M0#g	VSS	VSS	nfet_01v8
+ L=1.5e-07	W=4.25e-07
MX60/M0	MX60/M0#d	MX60/M0#g	MX60/M0#s	VSS	nfet_01v8
+ L=1.5e-07	W=4.25e-07
MX59/M0	MX59/M0#d	MX59/M0#g	VSS	VSS	nfet_01v8
+ L=1.5e-07	W=4.25e-07
MX58/M0	MX58/M0#d	MX58/M0#g	MX58/M0#s	VSS	nfet_01v8
+ L=1.5e-07	W=4.25e-07
MX44/M0	MX44/M0#d	MX44/M0#g	VSS	VSS	nfet_01v8
+ L=1.5e-07	W=7.6e-07
MX43/M0	MX43/M0#d	MX43/M0#g	VSS	VSS	nfet_01v8
+ L=1.5e-07	W=4.25e-07
MX42/M0	MX42/M0#d	MX42/M0#g	VSS	VSS	nfet_01v8
+ L=1.5e-07	W=4.25e-07
MX57/M0	MX57/M0#d	MX57/M0#g	MX57/M0#s	VDD	pfet_01v8
+ L=1.5e-07	W=6.25e-07
MX56/M0	MX56/M0#d	MX56/M0#g	MX56/M0#s	VDD	pfet_01v8
+ L=1.5e-07	W=6.25e-07
MX55/M0	MX55/M0#d	MX55/M0#g	VDD	VDD	pfet_01v8
+ L=1.5e-07	W=6.25e-07
MX54/M0	MX54/M0#d	MX54/M0#g	VDD	VDD	pfet_01v8
+ L=1.5e-07	W=6.25e-07
MX53/M0	MX53/M0#d	MX53/M0#g	VDD	VDD	pfet_01v8
+ L=1.5e-07	W=6.25e-07
MX52/M0	MX52/M0#d	MX52/M0#g	VDD	VDD	pfet_01v8
+ L=1.5e-07	W=1.13e-06
MX51/M0	MX51/M0#d	MX51/M0#g	VDD	VDD	pfet_01v8
+ L=1.5e-07	W=6.25e-07
MX50/M0	MX50/M0#d	MX50/M0#g	MX50/M0#s	VDD	pfet_01v8
+ L=1.5e-07	W=6.25e-07
MX49/M0	MX49/M0#d	MX49/M0#g	MX49/M0#s	VDD	pfet_01v8
+ L=1.5e-07	W=6.25e-07
MX48/M0	MX48/M0#d	MX48/M0#g	MX48/M0#s	VDD	pfet_01v8
+ L=1.5e-07	W=6.25e-07
MX47/M0	MX47/M0#d	MX47/M0#g	VDD	VDD	pfet_01v8
+ L=1.5e-07	W=6.25e-07
MX46/M0	MX46/M0#d	MX46/M0#g	VDD	VDD	pfet_01v8
+ L=1.5e-07	W=6.25e-07
MX45/M0	MX45/M0#d	MX45/M0#g	VDD	VDD	pfet_01v8
+ L=1.5e-07	W=6.25e-07
MX41/M0	MX41/M0#d	MX41/M0#g	VDD	VDD	pfet_01v8
+ L=1.5e-07	W=1.13e-06
.ENDS
*
*|DSPF 1.5
*
*|DATE "Sun Jan 14 12:27:10 2024"
*|VENDOR "Cadence Design Systems"
*|PROGRAM "Cadence Quantus Extraction"
*|VERSION "22.1.0-p089 Linux 64 bit - (Thu Jan 19 11:47:08 PST 2023)"
*|DESIGN "ADDHX1"
*|DIVIDER /
*|DELIMITER #
*|DeviceFingerDelim "@"
*|BUSBIT []
*|GLOBAL_TEMPERATURE 25
*|OPERATING_TEMPERATURE 25
** QRC_TECH_DIR /vols/wfo_devel/projects/reference_SKY130/tech/sky130_release_0.0.1/quantus/extraction/typical 
** caps2d version: 10
*
.GLOBAL VDD VSS
*
.SUBCKT  ADDHX1 A B CO S
*
*Net Section
*
*|GROUND_NET VSS
*
*|NET A 8.40406e-16
*|P (A X 0 2.2940 2.0180)
*|I (MX36/M0#g MX36/M0 g X 0 2.2550 0.8025)
*|I (MX35/M0#g MX35/M0 g X 0 4.0650 0.8025)
*|I (MX44/M0#g MX44/M0 g X 0 2.2550 3.2375)
*|I (MM2#g MM2 g X 0 4.0650 3.2375)
*|S (A#13 2.2850 1.7600)
*|S (A#14 4.0650 1.7600)
*|S (A#16 2.3000 1.7600)
C1 MM2#g VSS 5.21114e-17
C2 MX44/M0#g VSS 5.61863e-17
C3 MX35/M0#g VSS 5.10651e-17
C4 MX36/M0#g VSS 4.58346e-17
C5 A#13 VSS 1.7758e-16
C6 A#14 VSS 1.93323e-16
C7 A VSS 2.64306e-16
Rg1 MX44/M0#g A#13 451.205536 $W=0.15
Rg2 A#13 MX36/M0#g 284.112213 $W=0.15
Rg3 MM2#g A#14 455.929077 $W=0.15
Rg4 A#14 MX35/M0#g 288.835754 $W=0.15
Rf5 A#14 A#16 147.894119 $W=0.17
Rf6 A#16 A#13 16.129412 $W=0.17
Re7 A A#16 152.124039 $W=0.26
*
*|NET B 9.87853e-16
*|P (B X 0 3.6920 2.4330)
*|I (MX43/M0#g MX43/M0 g X 0 1.3950 0.8025)
*|I (MX32/M0#g MX32/M0 g X 0 2.6850 0.8025)
*|I (MX30/M0#g MX30/M0 g X 0 3.6350 0.8025)
*|I (MX37/M0#g MX37/M0 g X 0 2.6850 3.2375)
*|I (MX33/M0#g MX33/M0 g X 0 3.6350 3.2375)
*|I (MM1#g MM1 g X 0 1.8250 3.2375)
*|S (B#19 1.8200 2.1750)
*|S (B#20 2.8200 2.1750)
*|S (B#21 3.5750 2.1750)
*|S (B#22 3.5750 2.1750)
*|S (B#23 3.6800 2.1750)
*|S (B#24 2.8200 2.1750)
C8 MM1#g VSS 5.06175e-17
C9 MX33/M0#g VSS 5.36363e-17
C10 MX37/M0#g VSS 5.27498e-17
C11 MX30/M0#g VSS 4.3516e-17
C12 MX32/M0#g VSS 4.65245e-17
C13 MX43/M0#g VSS 4.36019e-17
C14 B#19 VSS 1.28348e-16
C15 B#20 VSS 1.42584e-16
C16 B#21 VSS 9.13967e-17
C17 B VSS 3.34878e-16
Rg8 MM1#g B#19 322.575745 $W=0.15
Rg9 B#19 MX43/M0#g 495.890503 $W=0.15
Rg10 MX37/M0#g B#20 349.059326 $W=0.15
Rg11 B#20 MX32/M0#g 438.636658 $W=0.15
Rg12 MX33/M0#g B#21 327.299255 $W=0.15
Rg13 B#21 MX30/M0#g 426.912598 $W=0.15
Rf14 B#22 B#23 5.376000 $W=0.25
Rf15 B#22 B#24 56.847057 $W=0.17
Rf16 B#24 B#19 90.294113 $W=0.17
Rf17 B#21 B#22 15.000000 $W=0.0289
Rf18 B#20 B#24 15.000000 $W=0.0289
Re19 B B#23 152.124039 $W=0.26
*
*|NET CO 6.21828e-16
*|P (CO X 0 4.6120 1.9230)
*|I (MX42/M0#d MX42/M0 d X 0 4.6305 0.9700)
*|I (MX39/M0#d MX39/M0 d X 0 4.6305 2.9850)
*|S (CO#2 4.7700 2.7650)
*|S (CO#3 4.7700 1.0050)
C18 MX42/M0#d VSS 7.29959e-17
C19 CO#3 VSS 1.44645e-16
C20 CO#2 VSS 2.74492e-16
C21 CO VSS 1.29696e-16
Rf20 MX39/M0#d CO#2 10.991489 $W=0.47
Rf21 CO#3 MX42/M0#d 8.423712 $W=0.485
Re22 CO#2 CO 76.363792 $W=0.26
Re23 CO CO#3 76.400330 $W=0.26
*
*|NET S 6.79792e-16
*|P (S X 0 0.4720 1.9180)
*|I (MX41/M0#d MX41/M0 d X 0 0.3995 0.9700)
*|I (MX38/M0#d MX38/M0 d X 0 0.3995 2.9850)
*|S (S#2 0.2600 2.7650)
*|S (S#3 0.2600 1.0050)
C22 MX41/M0#d VSS 7.90406e-17
C23 S#3 VSS 1.46921e-16
C24 S#2 VSS 3.1271e-16
C25 S VSS 1.41121e-16
Rf24 MX38/M0#d S#2 10.991489 $W=0.47
Rf25 S#3 MX41/M0#d 8.423712 $W=0.485
Re26 S#2 S 76.363678 $W=0.26
Re27 S S#3 76.395409 $W=0.26
*
*|NET 2 1.21831e-15
*|I (MX42/M0#g MX42/M0 g X 0 4.5550 0.9700)
*|I (MX30/M0#d MX30/M0 d X 0 3.5595 0.8025)
*|I (MX39/M0#g MX39/M0 g X 0 4.5550 2.9850)
*|I (MX33/M0#s MX33/M0 s X 0 3.7105 3.2375)
*|I (MM2#s MM2 s X 0 3.9895 3.2375)
*|S (2 4.6150 2.1450)
*|S (2#8 3.4200 0.8500)
*|S (2#10 3.8500 3.3650)
*|S (2#13 4.0650 2.1800)
C26 MX33/M0#s VSS 1.00782e-16
C27 MX39/M0#g VSS 6.72576e-17
C28 MX30/M0#d VSS 6.77595e-17
C29 MX42/M0#g VSS 5.55768e-17
C30 2#8 VSS 2.08261e-16
C31 2#10 VSS 2.06121e-16
C32 2#13 VSS 4.23622e-16
C33 2 VSS 8.89341e-17
Rg28 MX39/M0#g 2 255.802612 $W=0.15
Rg29 2 MX42/M0#g 363.449280 $W=0.15
Rf30 2#8 MX30/M0#d 18.764706 $W=0.17
Rf31 2#10 MX33/M0#s 24.788235 $W=0.17
Rf32 2 2#13 206.363770 $W=0.17
Re33 2#10 2#13 152.679382 $W=0.23
Re34 2#13 2#8 152.963058 $W=0.23
Rmw35 MM2#s MX33/M0#s 0.001000 $W=1000000
*
*|NET 3 1.40823e-15
*|I (MX43/M0#d MX43/M0 d X 0 1.4705 0.8025)
*|I (MX41/M0#g MX41/M0 g X 0 0.4750 0.9700)
*|I (MX31/M0#d MX31/M0 d X 0 1.7495 0.8025)
*|I (MX40/M0#d MX40/M0 d X 0 1.4705 3.2375)
*|I (MX38/M0#g MX38/M0 g X 0 0.4750 2.9850)
*|I (MM1#s MM1 s X 0 1.7495 3.2375)
*|S (3 0.4750 2.9850)
*|S (3#7 0.4150 1.7600)
*|S (3#8 1.6100 3.3450)
*|S (3#11 1.6100 0.7590)
*|S (3#12 1.3350 1.7600)
C34 MX40/M0#d VSS 1.28785e-16
C35 MX41/M0#g VSS 5.31046e-17
C36 3#12 VSS 4.35088e-16
C37 3#11 VSS 2.78667e-16
C38 3#8 VSS 3.23822e-16
C39 3#7 VSS 1.1782e-16
C40 3 VSS 7.09477e-17
Rg36 3 3#7 379.515930 $W=0.15
Rg37 3#7 MX41/M0#g 239.735947 $W=0.15
Rf38 3#8 MX40/M0#d 23.282352 $W=0.17
Rf39 MX43/M0#d 3#11 18.087059 $W=0.17
Rf40 3#12 3#7 236.270584 $W=0.17
Re41 3#8 3#12 152.922638 $W=0.23
Re42 3#12 3#11 152.686005 $W=0.23
Rmw43 MX31/M0#d MX43/M0#d 0.001000 $W=1000000
Rmw44 MX38/M0#g 3 0.001000 $W=1000000
Rmw45 MM1#s MX40/M0#d 0.001000 $W=1000000
*
*|NET 4 1.85002e-15
*|I (MX36/M0#d MX36/M0 d X 0 2.1795 0.8025)
*|I (MX34/M0#g MX34/M0 g X 0 0.9650 0.8025)
*|I (MX31/M0#s MX31/M0 s X 0 1.9005 0.8025)
*|I (MX44/M0#d MX44/M0 d X 0 2.1795 3.2375)
*|I (MM0#g MM0 g X 0 0.9650 3.2375)
*|I (MM1#d MM1 d X 0 1.9005 3.2375)
*|S (4 0.9650 3.2375)
*|S (4#7 0.9650 2.1450)
*|S (4#9 0.9650 2.1450)
*|S (4#11 2.0400 3.0900)
*|S (4#12 2.0400 0.8500)
C41 MX34/M0#g VSS 4.68862e-17
C42 MX36/M0#d VSS 9.02933e-17
C43 4#9 VSS 4.62207e-16
C44 4#12 VSS 3.43109e-16
C45 4#11 VSS 7.97262e-16
C46 4#7 VSS 6.84464e-17
C47 4 VSS 4.18154e-17
Rg46 4 4#7 332.215759 $W=0.15
Rg47 4#7 MX34/M0#g 412.549103 $W=0.15
Rf48 4#7 4#9 15.000000 $W=0.17
Rf49 MX44/M0#d 4#11 177.917648 $W=0.17
Rf50 4#12 MX36/M0#d 18.764706 $W=0.17
Re51 4#12 4#11 153.840897 $W=0.17
Re52 4#11 4#9 154.172043 $W=0.17
Rmw53 MX31/M0#s MX36/M0#d 0.001000 $W=1000000
Rmw54 MM0#g 4 0.001000 $W=1000000
Rmw55 MM1#d MX44/M0#d 0.001000 $W=1000000
*
*|NET 5 1.21833e-15
*|I (MX32/M0#d MX32/M0 d X 0 2.7605 0.8025)
*|I (MX31/M0#g MX31/M0 g X 0 1.8250 0.8025)
*|I (MX40/M0#g MX40/M0 g X 0 1.3950 3.2375)
*|I (MX37/M0#d MX37/M0 d X 0 2.7605 3.2375)
*|S (5#7 1.3950 2.6500)
*|S (5 1.8250 1.2900)
*|S (5#10 2.9000 3.2350)
*|S (5#11 2.9000 3.0900)
*|S (5#14 2.9000 0.8000)
*|S (5#15 2.9000 0.8500)
C48 MX40/M0#g VSS 4.81153e-17
C49 MX31/M0#g VSS 3.64843e-17
C50 MX32/M0#d VSS 1.38647e-16
C51 5#15 VSS 2.17095e-16
C52 5#11 VSS 3.79899e-16
C53 5#7 VSS 2.09375e-16
C54 5 VSS 1.88712e-16
Rg56 MX40/M0#g 5#7 169.942413 $W=0.15
Rg57 MX31/M0#g 5 137.809082 $W=0.15
Rf58 5#10 5#11 10.917646 $W=0.17
Rf59 5#11 5#7 155.798798 $W=0.17
Rf60 MX37/M0#d 5#10 15.000000 $W=0.17
Rf61 5#14 5#15 3.764706 $W=0.17
Rf62 5#15 5 123.422318 $W=0.17
Rf63 MX32/M0#d 5#14 15.000000 $W=0.17
Re64 5#11 5#15 305.217407 $W=0.23
*
*|NET 17 1.0495e-16
*|I (MX43/M0#s MX43/M0 s X 0 1.3195 0.8025)
*|I (MX34/M0#d MX34/M0 d X 0 1.0405 0.8025)
*|S (17 1.1800 0.8450)
C55 17 VSS 1.0495e-16
Rmw65 MX43/M0#s 17 0.001000 $W=1000000
Rmw66 MX34/M0#d 17 0.001000 $W=1000000
*
*|NET 19 1.04984e-16
*|I (MX40/M0#s MX40/M0 s X 0 1.3195 3.2375)
*|I (MM0#d MM0 d X 0 1.0405 3.2375)
*|S (19 1.1800 3.1350)
C56 19 VSS 1.04984e-16
Rmw67 MX40/M0#s 19 0.001000 $W=1000000
Rmw68 MM0#d 19 0.001000 $W=1000000
*
*|NET 21 8.41594e-17
*|I (MX35/M0#d MX35/M0 d X 0 3.9895 0.8025)
*|I (MX30/M0#s MX30/M0 s X 0 3.7105 0.8025)
*|S (21 3.8500 0.8450)
C57 21 VSS 8.41594e-17
Rmw69 MX35/M0#d 21 0.001000 $W=1000000
Rmw70 MX30/M0#s 21 0.001000 $W=1000000
*
*Instance Section
*
MX43/M0	MX43/M0#d	MX43/M0#g	MX43/M0#s	VSS	nfet_01v8
+ L=1.5e-07	W=4.25e-07
MX42/M0	MX42/M0#d	MX42/M0#g	VSS	VSS	nfet_01v8
+ L=1.5e-07	W=7.6e-07
MX41/M0	MX41/M0#d	MX41/M0#g	VSS	VSS	nfet_01v8
+ L=1.5e-07	W=7.6e-07
MX36/M0	MX36/M0#d	MX36/M0#g	VSS	VSS	nfet_01v8
+ L=1.5e-07	W=4.25e-07
MX35/M0	MX35/M0#d	MX35/M0#g	VSS	VSS	nfet_01v8
+ L=1.5e-07	W=4.25e-07
MX34/M0	MX34/M0#d	MX34/M0#g	VSS	VSS	nfet_01v8
+ L=1.5e-07	W=4.25e-07
MX32/M0	MX32/M0#d	MX32/M0#g	VSS	VSS	nfet_01v8
+ L=1.5e-07	W=4.25e-07
MX31/M0	MX31/M0#d	MX31/M0#g	MX31/M0#s	VSS	nfet_01v8
+ L=1.5e-07	W=4.25e-07
MX30/M0	MX30/M0#d	MX30/M0#g	MX30/M0#s	VSS	nfet_01v8
+ L=1.5e-07	W=4.25e-07
MX44/M0	MX44/M0#d	MX44/M0#g	VDD	VDD	pfet_01v8
+ L=1.5e-07	W=6.25e-07
MX40/M0	MX40/M0#d	MX40/M0#g	MX40/M0#s	VDD	pfet_01v8
+ L=1.5e-07	W=6.25e-07
MX39/M0	MX39/M0#d	MX39/M0#g	VDD	VDD	pfet_01v8
+ L=1.5e-07	W=1.13e-06
MX38/M0	MX38/M0#d	MX38/M0#g	VDD	VDD	pfet_01v8
+ L=1.5e-07	W=1.13e-06
MX37/M0	MX37/M0#d	MX37/M0#g	VDD	VDD	pfet_01v8
+ L=1.5e-07	W=6.25e-07
MX33/M0	VDD	MX33/M0#g	MX33/M0#s	VDD	pfet_01v8
+ L=1.5e-07	W=6.25e-07
MM0	MM0#d	MM0#g	VDD	VDD	pfet_01v8	L=1.5e-07
+ W=6.25e-07
MM1	MM1#d	MM1#g	MM1#s	VDD	pfet_01v8	L=1.5e-07
+ W=6.25e-07
MM2	VDD	MM2#g	MM2#s	VDD	pfet_01v8	L=1.5e-07
+ W=6.25e-07
.ENDS
*
*|DSPF 1.5
*
*|DATE "Sun Jan 14 12:31:07 2024"
*|VENDOR "Cadence Design Systems"
*|PROGRAM "Cadence Quantus Extraction"
*|VERSION "22.1.0-p089 Linux 64 bit - (Thu Jan 19 11:47:08 PST 2023)"
*|DESIGN "AND2X1"
*|DIVIDER /
*|DELIMITER #
*|DeviceFingerDelim "@"
*|BUSBIT []
*|GLOBAL_TEMPERATURE 25
*|OPERATING_TEMPERATURE 25
** QRC_TECH_DIR /vols/wfo_devel/projects/reference_SKY130/tech/sky130_release_0.0.1/quantus/extraction/typical 
** caps2d version: 10
*
.GLOBAL VDD VSS
*
.SUBCKT  AND2X1 A B Y
*
*Net Section
*
*|GROUND_NET VSS
*
*|NET A 3.82356e-16
*|P (A X 0 0.4720 2.3420)
*|I (MX13/M0#g MX13/M0 g X 0 0.4750 0.8025)
*|I (MX10/M0#g MX10/M0 g X 0 0.4750 3.2375)
*|S (A#7 0.4750 2.6000)
*|S (A#9 0.4600 2.6000)
C1 MX10/M0#g VSS 4.78054e-17
C2 MX13/M0#g VSS 3.66772e-17
C3 A#9 VSS 6.43115e-17
C4 A VSS 2.33562e-16
Rg1 MX10/M0#g A#7 186.009079 $W=0.15
Rg2 A#7 MX13/M0#g 558.755737 $W=0.15
Rf3 A#7 A#9 16.129412 $W=0.17
Re4 A A#9 152.124039 $W=0.26
*
*|NET B 6.50218e-16
*|P (B X 0 1.3920 1.8020)
*|I (MX9/M0#g MX9/M0 g X 0 0.9050 0.8025)
*|I (MM0#g MM0 g X 0 0.9050 3.2375)
*|S (B#7 0.9050 2.0600)
*|S (B#8 1.3800 2.0600)
C5 MM0#g VSS 4.75703e-17
C6 MX9/M0#g VSS 4.37005e-17
C7 B#8 VSS 4.71831e-16
C8 B#7 VSS 8.71163e-17
Rg5 MM0#g B#7 359.529083 $W=0.15
Rg6 B#7 MX9/M0#g 385.235748 $W=0.15
Rf7 B#8 B#7 50.764706 $W=0.17
Re8 B B#8 152.124039 $W=0.26
*
*|NET Y 7.33763e-16
*|P (Y X 0 1.8520 2.3230)
*|I (MX12/M0#d MX12/M0 d X 0 1.4705 0.9700)
*|I (MX11/M0#d MX11/M0 d X 0 1.4705 2.9850)
*|S (Y#1 1.6100 3.1850)
*|S (Y#4 1.6100 0.7700)
C9 MX11/M0#d VSS 1.12528e-16
C10 MX12/M0#d VSS 3.24712e-20
C11 Y#4 VSS 2.92953e-16
C12 Y#1 VSS 1.70851e-16
C13 Y VSS 1.57399e-16
Rf9 Y#1 MX11/M0#d 10.224490 $W=0.49
Rf10 MX12/M0#d Y#4 22.558825 $W=0.17
Re11 Y#1 Y 76.365402 $W=0.26
Re12 Y Y#4 152.790131 $W=0.26
*
*|NET 5 1.21156e-15
*|I (MX13/M0#d MX13/M0 d X 0 0.3995 0.8025)
*|I (MX12/M0#g MX12/M0 g X 0 1.3950 0.9700)
*|I (MX11/M0#g MX11/M0 g X 0 1.3950 2.9850)
*|I (MX10/M0#d MX10/M0 d X 0 0.5505 3.2375)
*|I (MM0#s MM0 s X 0 0.8295 3.2375)
*|S (5 1.4550 1.6750)
*|S (5#8 0.2600 0.8000)
*|S (5#10 0.6900 3.3850)
*|S (5#13 0.9950 1.6750)
C14 MX10/M0#d VSS 1.00198e-16
C15 MX11/M0#g VSS 7.76333e-17
C16 MX12/M0#g VSS 5.79524e-17
C17 5#8 VSS 2.49751e-16
C18 5#10 VSS 2.19342e-16
C19 5#13 VSS 4.09329e-16
C20 5 VSS 9.73503e-17
Rg13 MX11/M0#g 5 406.829285 $W=0.15
Rg14 5 MX12/M0#g 212.422607 $W=0.15
Rf15 5#8 MX13/M0#d 15.000000 $W=0.17
Rf16 5#10 MX10/M0#d 26.294117 $W=0.17
Rf17 5 5#13 201.635284 $W=0.17
Re18 5#10 5#13 153.027695 $W=0.23
Re19 5#13 5#8 152.806915 $W=0.23
Rmw20 MM0#s MX10/M0#d 0.001000 $W=1000000
*
*|NET 9 9.91564e-17
*|I (MX13/M0#s MX13/M0 s X 0 0.5505 0.8025)
*|I (MX9/M0#d MX9/M0 d X 0 0.8295 0.8025)
*|S (9 0.6900 0.8000)
C21 9 VSS 9.91564e-17
Rmw21 MX13/M0#s 9 0.001000 $W=1000000
Rmw22 MX9/M0#d 9 0.001000 $W=1000000
*
*Instance Section
*
MX13/M0	MX13/M0#d	MX13/M0#g	MX13/M0#s	VSS	nfet_01v8
+ L=1.5e-07	W=4.25e-07
MX12/M0	MX12/M0#d	MX12/M0#g	VSS	VSS	nfet_01v8
+ L=1.5e-07	W=7.6e-07
MX9/M0	MX9/M0#d	MX9/M0#g	VSS	VSS	nfet_01v8
+ L=1.5e-07	W=4.25e-07
MX11/M0	MX11/M0#d	MX11/M0#g	VDD	VDD	pfet_01v8
+ L=1.5e-07	W=1.13e-06
MX10/M0	MX10/M0#d	MX10/M0#g	VDD	VDD	pfet_01v8
+ L=1.5e-07	W=6.25e-07
MM0	VDD	MM0#g	MM0#s	VDD	pfet_01v8	L=1.5e-07
+ W=6.25e-07
.ENDS
*
*|DSPF 1.5
*
*|DATE "Sun Jan 14 12:32:54 2024"
*|VENDOR "Cadence Design Systems"
*|PROGRAM "Cadence Quantus Extraction"
*|VERSION "22.1.0-p089 Linux 64 bit - (Thu Jan 19 11:47:08 PST 2023)"
*|DESIGN "AND2X2"
*|DIVIDER /
*|DELIMITER #
*|DeviceFingerDelim "@"
*|BUSBIT []
*|GLOBAL_TEMPERATURE 25
*|OPERATING_TEMPERATURE 25
** QRC_TECH_DIR /vols/wfo_devel/projects/reference_SKY130/tech/sky130_release_0.0.1/quantus/extraction/typical 
** caps2d version: 10
*
.GLOBAL VDD VSS
*
.SUBCKT  AND2X2 A B Y
*
*Net Section
*
*|GROUND_NET VSS
*
*|NET A 5.98866e-16
*|P (A X 0 1.3920 2.1810)
*|I (MX13/M0#g MX13/M0 g X 0 0.9050 0.8025)
*|I (MM0#g MM0 g X 0 0.9050 3.2375)
*|S (A#7 0.9050 2.0750)
*|S (A#8 1.3800 2.0750)
C1 MM0#g VSS 5.21204e-17
C2 MX13/M0#g VSS 4.88356e-17
C3 A#8 VSS 2.28027e-16
C4 A#7 VSS 8.36829e-17
C5 A VSS 1.86201e-16
Rg1 MM0#g A#7 354.709076 $W=0.15
Rg2 A#7 MX13/M0#g 390.055756 $W=0.15
Rf3 A#8 A#7 50.764706 $W=0.17
Re4 A A#8 152.050964 $W=0.26
*
*|NET B 4.71193e-16
*|P (B X 0 0.4720 2.3920)
*|I (MX15/M0#g MX15/M0 g X 0 0.4750 0.8025)
*|I (MX11/M0#g MX11/M0 g X 0 0.4750 3.2375)
*|S (B#7 0.4750 2.6500)
*|S (B#9 0.4620 2.6500)
C6 MX11/M0#g VSS 4.71065e-17
C7 MX15/M0#g VSS 3.65674e-17
C8 B#9 VSS 1.01332e-16
C9 B VSS 2.86187e-16
Rg5 MX11/M0#g B#7 169.942413 $W=0.15
Rg6 B#7 MX15/M0#g 574.822449 $W=0.15
Rf7 B#7 B#9 15.978824 $W=0.17
Re8 B B#9 152.124039 $W=0.26
*
*|NET Y 8.59498e-16
*|P (Y X 0 1.8520 2.2840)
*|I (MX12/M0#d MX12/M0 d X 0 1.4705 0.9700)
*|I (MX12/M1#s MX12/M1 s X 0 1.7495 0.9700)
*|I (MX14/M0#d MX14/M0 d X 0 1.4705 2.9850)
*|I (MX14/M1#s MX14/M1 s X 0 1.7495 2.9850)
*|S (Y#1 1.6100 3.3260)
*|S (Y#4 1.6100 0.8000)
C10 MX14/M0#d VSS 1.72222e-16
C11 Y#4 VSS 3.2421e-16
C12 Y#1 VSS 1.61218e-16
C13 Y VSS 2.01849e-16
Rf9 Y#1 MX14/M0#d 30.675293 $W=0.17
Rf10 MX12/M0#d Y#4 20.299999 $W=0.17
Re11 Y#1 Y 152.544464 $W=0.26
Re12 Y Y#4 152.756958 $W=0.26
Rmw13 MX12/M1#s MX12/M0#d 0.001000 $W=1000000
Rmw14 MX14/M1#s MX14/M0#d 0.001000 $W=1000000
*
*|NET 1 1.30595e-15
*|I (MX15/M0#d MX15/M0 d X 0 0.3995 0.8025)
*|I (MX12/M0#g MX12/M0 g X 0 1.3950 0.9700)
*|I (MX12/M1#g MX12/M1 g X 0 1.8250 0.9700)
*|I (MX14/M0#g MX14/M0 g X 0 1.3950 2.9850)
*|I (MX14/M1#g MX14/M1 g X 0 1.8250 2.9850)
*|I (MX11/M0#d MX11/M0 d X 0 0.5505 3.2375)
*|I (MM0#s MM0 s X 0 0.8295 3.2375)
*|S (1#13 1.8250 1.6250)
*|S (1 1.6100 1.6250)
*|S (1#15 1.3850 1.6250)
*|S (1#16 0.2600 0.8000)
*|S (1#18 0.6900 3.3830)
*|S (1#21 0.8730 1.6250)
C14 MX11/M0#d VSS 1.01971e-16
C15 MX14/M1#g VSS 6.94927e-17
C16 MX14/M0#g VSS 7.12561e-17
C17 MX12/M1#g VSS 5.36909e-17
C18 MX12/M0#g VSS 5.71326e-17
C19 1#16 VSS 2.34568e-16
C20 1#18 VSS 2.35068e-16
C21 1#21 VSS 3.4187e-16
C22 1 VSS 1.40901e-16
Rg15 MX14/M1#g 1#13 430.838745 $W=0.15
Rg16 1#13 1 20.521515 $W=0.33
Rg17 1 1#15 20.521515 $W=0.33
Rg18 1#15 MX12/M0#g 203.511398 $W=0.15
Rg19 1#13 MX12/M1#g 203.511398 $W=0.15
Rg20 1#15 MX14/M0#g 430.838745 $W=0.15
Rf21 1#16 MX15/M0#d 15.000000 $W=0.17
Rf22 1#18 MX11/M0#d 26.143530 $W=0.17
Rf23 1 1#21 214.991760 $W=0.17
Re24 1#18 1#21 152.919861 $W=0.23
Re25 1#21 1#16 152.713852 $W=0.23
Rmw26 MM0#s MX11/M0#d 0.001000 $W=1000000
*
*|NET 11 1.0433e-16
*|I (MX15/M0#s MX15/M0 s X 0 0.5505 0.8025)
*|I (MX13/M0#d MX13/M0 d X 0 0.8295 0.8025)
*|S (11 0.6900 0.8000)
C23 11 VSS 1.0433e-16
Rmw27 MX15/M0#s 11 0.001000 $W=1000000
Rmw28 MX13/M0#d 11 0.001000 $W=1000000
*
*Instance Section
*
MX15/M0	MX15/M0#d	MX15/M0#g	MX15/M0#s	VSS	nfet_01v8
+ L=1.5e-07	W=4.25e-07
MX13/M0	MX13/M0#d	MX13/M0#g	VSS	VSS	nfet_01v8
+ L=1.5e-07	W=4.25e-07
MX12/M0	MX12/M0#d	MX12/M0#g	VSS	VSS	nfet_01v8
+ L=1.5e-07	W=7.6e-07
MX12/M1	VSS	MX12/M1#g	MX12/M1#s	VSS	nfet_01v8
+ L=1.5e-07	W=7.6e-07
MX14/M0	MX14/M0#d	MX14/M0#g	VDD	VDD	pfet_01v8
+ L=1.5e-07	W=1.13e-06
MX14/M1	VDD	MX14/M1#g	MX14/M1#s	VDD	pfet_01v8
+ L=1.5e-07	W=1.13e-06
MX11/M0	MX11/M0#d	MX11/M0#g	VDD	VDD	pfet_01v8
+ L=1.5e-07	W=6.25e-07
MM0	VDD	MM0#g	MM0#s	VDD	pfet_01v8	L=1.5e-07
+ W=6.25e-07
.ENDS
*
*|DSPF 1.5
*
*|DATE "Sun Jan 14 12:35:12 2024"
*|VENDOR "Cadence Design Systems"
*|PROGRAM "Cadence Quantus Extraction"
*|VERSION "22.1.0-p089 Linux 64 bit - (Thu Jan 19 11:47:08 PST 2023)"
*|DESIGN "AND3X1"
*|DIVIDER /
*|DELIMITER #
*|DeviceFingerDelim "@"
*|BUSBIT []
*|GLOBAL_TEMPERATURE 25
*|OPERATING_TEMPERATURE 25
** QRC_TECH_DIR /vols/wfo_devel/projects/reference_SKY130/tech/sky130_release_0.0.1/quantus/extraction/typical 
** caps2d version: 10
*
.GLOBAL VDD VSS
*
.SUBCKT  AND3X1 A B C Y
*
*Net Section
*
*|GROUND_NET VSS
*
*|NET A 3.89148e-16
*|P (A X 0 0.4720 1.4090)
*|I (MX17/M0#g MX17/M0 g X 0 0.4740 0.8025)
*|I (MX18/M0#g MX18/M0 g X 0 0.4740 3.2375)
*|S (A#7 0.4140 1.5150)
*|S (A#8 0.4600 1.5150)
C1 MX18/M0#g VSS 4.54604e-17